#------------------------------------------------------------------------------
#                  Harvard-NASA Emissions Component (HEMCO)                   !
#------------------------------------------------------------------------------
#BOP
#
# !MODULE: HEMCO_Config.rc
#
# !DESCRIPTION: Contains configuration information for HEMCO. Define the
#  emissions inventories and corresponding file paths here. Entire 
#  configuration files can be inserted into this configuration file with
#  an '>>>include' statement, e.g. '>>>include HEMCO\_Config\_test.rc' 
#  The settings of include-files will be ignored.
#\\
#\\
# !REMARKS:
#  The following tokens will be replaced:
#  (1) ROOT    : Filepath to HEMCO root directory
#  (2) CFDIR   : Filepath to directory of this configuration file. 
#  (3) MET     : Met field type (from G-C compilation command)
#  (4) GRID    : Horizontal grid type (from G-C compilation command)
#  (5) SIM     : Simulation type (from G-C compilation command)
#  (6) NEST    : Nested-grid type (CH, EU, NA, SE)
#  (7) LNOX    : String for OTD/LIS lightning NOx files:
#                (a) For GEOS-5 this is either "geos5.1.0" or "geos5.2.0".  
#                (b) For other met fields, this is the same as MET.
#  (8) LEVRED  : String w/ the # of levels in the reduced GEOS-Chem grid
#                as used in some filenames (e.g. "23L", "30L", "47L")
#  (9) LEVFULL : String w/ the # of levels in the full GEOS-Chem grid
#                as used in some filenames (e.g. "55L", "72L")
# 
# !REVISION HISTORY: 
#  17 Apr 2014 - R. Yantosca - Initial version
#  02 Jul 2014 - R. Yantosca - Now use a 1 x 1 file for DMS seawater
#  02 Jul 2014 - R. Yantosca - Now added LNOX token
#  28 Jul 2014 - R. Yantosca - Now added "Unit tolerance" setting
#  12 Aug 2014 - R. Yantosca - Now added FINN files
#  18 Aug 2014 - R. Yantosca - Use proper NO2 to NO conversion for AEIC
#  18 Aug 2014 - R. Yantosca - Don't use diurnal factors for biofuel C2H6 
#  29 Aug 2014 - R. Yantosca - Apply GEIA_TOD_FOSSIL scale factor to NEI2005
#  04 Sep 2014 - R. Yantosca - Make sure to turn on MEGAN SOA extension
#  07 Oct 2014 - R. Yantosca - Now use HEMCO tokens $ROOT, $MET, $RES
#  16 Oct 2014 - R. Yantosca - Remove scale factor 39 from LIANG_CH2Br2
#  16 Oct 2014 - R. Yantosca - Now point to new CAC_NH3.geos.1x1.nc file
#  20 Oct 2014 - R. Yantosca - Now read data from GFED3/v2014-10
#  03 Nov 2014 - R. Yantosca - Now use proper scale factors for CAC NO, CO SO2
#  12 Nov 2014 - R. Yantosca - Now emit BC and OC into hydrophilic tracers
#                              BCPI & OCPI.  Apply scale factors as needed
#                              to get hydrophobic tracers BCPO, OCPO.  
#  25 Nov 2014 - R. Yantosca - For Fullchem simulations: turned off MEGAN_SOA
#  05 Jan 2015 - R. Yantosca - Add GMI stratospheric Bry data
#  12 Jan 2015 - R. Yantosca - Now move strat Bry data to base emissions
#  20 Jan 2015 - M. Sulprizio- Update OTD-LIS factors through October 2014
#  20 Jan 2015 - M. Sulprizio- Update EMEP emissions for 2008-2010
#  05 Feb 2015 - M. Sulprizio- Update to EDGAR v4.2 emissions
#  16 Feb 2015 - C. Keller   - (a) Added data 'collections' (brackets).
#                              (b) Moved section extension switches at the
#                                  beginning.
#                              (c) Removed section extension data. These fields
#                                  are now listed in section base emissions.
#                              (d) Fields can now cover multiple categories.
#  19 Feb 2015 - R. Yantosca - Read EDGAR_BENZ from EDGAR/v2015-02/VOCv2
#  19 Feb 2015 - R. Yantosca - Read EDGAR_TODNOX from EDGAR/v2015-02/NO
#  25 Feb 2015 - M. Sulprizio- Update MEGAN2.1 emissions according to Guenther
#                              et al. (2012)
#  02 Mar 2015 - R. Yantosca - Add RCP and eruptive/degassing emissions info
#  04 Mar 2015 - R. Yantosca - Add UV albedo to the NON-EMISSIONS data section
#  11 Mar 2015 - M. Sulprizio- Add MIX Asian anthropogenic emissions and
#                              HTAP global anthropogenic emissions
#  11 Mar 2015 - C. Keller   - Added 'negative' bracket, e.g. data within a
#                              bracket leading by '--' is only considered if 
#                              this collection name is disabled.
#  13 Mar 2015 - C. Keller   - Added option to include other configuration 
#                              files by listing them as '>>>include CF_Name'.
#                              Added token '$CFDIR'. 
#  16 Mar 2015 - M. Sulprizio- Add mask file for MIX Asia region
#  16 Mar 2015 - M. Sulprizio- Now read variables for PARANOX and MEGAN from
#                              the HEMCO restart file
#  16 Mar 2015 - M. Sulprizio- Add GFED4 entries from Christoph Keller
#  16 Mar 2015 - R. Yantosca - Add TOMS/SBUV O3 columns
#  17 Mar 2015 - M. Sulprizio- Add NEI2016v1 entries from Christoph Keller
#  18 Mar 2015 - M. Sulprizio- Now use updated 2016 NEI2016v1 annual scale
#                              factors from Katie Travis
#  24 Mar 2015 - M. Sulprizio- Reorder NEI2016v1 files so that we read all species
#                              for each sector before closing each netCDF file
#  26 Mar 2015 - M. Sulprizio- Add entry for STATE_PSC from Christoph Keller
#  27 Mar 2015 - M. Sulprizio- Revert to EMEP emissions in EMEP/v2014-07/
#  27 Mar 2015 - C. Keller   - Warnings are now 0-3
#  31 Mar 2015 - M. Sulprizio- Now use EMEP file from Aaron van Donkelaar with
#                              updated emissions for 2008-2012
#  08 Apr 2015 - R. Yantosca - Set units of STATE_PSC to "count"
#  17 Apr 2015 - M. Sulprizio- Now read corrected AEIC file in AEIC/v2015-01/
#  21 Apr 2015 - R. Yantosca - Now can use extension names as switches
#  21 Apr 2015 - R. Yantosca - Now make section endings more visible
#  13 May 2015 - R. Yantosca - Fixed path of bromocarb scale factors
#  19 May 2015 - R. Yantosca - ICOADS_SHIP names now use "generic", not "gen"  
#  19 May 2015 - R. Yantosca - Add a note to only pick one biomass option 
#  19 May 2015 - R. Yantosca - Now use tokens for VERBOSE, WARNINGS            
#  20 May 2015 - M. Sulprizio- Change HTAP category from 1 to 1/2 since it
#                              includes anthro+biofuel emissions
#  20 May 2015 - R. Yantosca - Updated name of HEMCO restart file
#  21 May 2015 - R. Yantosca - Now use correct filenames for FINNv1
#  26 May 2015 - R. Yantosca - Remove entries for PARANOX suncos variables
#  26 May 2015 - M. Sulprizio- Add QFED2 entries from Christoph Keller and
#                              QFED2 diurnal scale factors from Katie Travis
#  05 Jun 2015 - R. Yantosca - Updated for the official GFED4 release data
#  16 Jun 2015 - M. Sulprizio- Add logical switch for HEMCO restart file
#  16 Jun 2015 - R. Yantosca - Change units of UV albedo to "percent"
#EOP
#------------------------------------------------------------------------------
#   !NEXUS EMISSION REVISION HISTORY
#   29 Jul 2020 - P. Campbell-Initial HEMCO configuration file for inline CAM-CMAQ
#                             Based on 22-sector area, mobile, point sources from 2016NEIv1 
#------------------------------------------------------------------------------
#BOC
###############################################################################
### BEGIN SECTION SETTINGS
###############################################################################

ROOT                        : /scratch2/NAGAPE/arl/Patrick.C.Campbell/NEXUS_Emissions/CAM-CMAQ_nrt_emissions/NEI2016v1_rc/input
GridFile                    : HEMCO_sa_Grid.rc
SpecFile                    : HEMCO_sa_Spec.rc
TimeFile                    : HEMCO_sa_Time.rc
DiagnFile                   : HEMCO_sa_Diagn.rc
DiagnPrefix                 : output/HEMCO_sa.diagnostics.merged_nei2016v1
DiagnFreq                   : Hourly 
Logfile                     : HEMCO.log
Unit tolerance              : 2
Negative values             : 1
Verbose                     : 3
Warnings                    : 1
Mask fractions              : true
MET                         : geosfp 
RES                         : 4x5
PBL dry deposition          : False
SINTOK                      : 0.5
Cap time shift              : true
#

### END SECTION SETTINGS ###

###############################################################################
### BEGIN SECTION EXTENSION SWITCHES
###############################################################################
###
### This section lists all emission extensions available to HEMCO and whether 
### they shall be used or not. Extension 'base' must have extension number 
### zero, all other extension numbers can be freely chosen. Data fields in 
### section 'base emissions' will only be read if the corresponding extension 
### (identified by ExtNr) is enabled. Similarly, fields grouped into data 
### collections ('(((CollectionName', ')))CollectionName') are only considered
### if the corresponding data collection is enabled in this section. Data
### listed within a disabled extension are always ignored, even if they are
### grouped in an enabled collection (e.g. GFED-4 data will never be considered
### if the GFED extension is disabled, even if the GFED4 option is set to true).
###
### It is possible to define collections that are only evaluated if a
### collection name is *not* enabled. This is achieved by leading the
### collection name with '.not.', e.g. '(((.not.FINN_daily' ...
### '))).not.FINN_daily' for FINN monthly data (only used if daily data is
### not being used). 
###
### The ExtNr provided in this section must match with the ExtNr assigned to
### the data listed in the base emissions sections. Otherwise, the listed 
### files won't be read!
###
### NOTES:
### --> You can only select one biomass burning option (GFED, QFED, FINN).
###
### --> BOND_BIOMASS must be set to false if GFED, QFED, or FINN is enabled.
###
### --> The biomass burning POA scale factor is the same as for the biofuel 
###     and anthro sources. 
###
### --> The NAP scale factor is determined as in the original simulation:
###     Obtain NAP emissions using scale factor from Hays 2002 ES&T 
###     (0.0253 g NAP/kg DM) and Andreae and Merlet 2001 GBC (92 g CO/kg DM)
###############################################################################
# ExtNr ExtName           on/off  Species
0       Base              : on    *
    --> HEMCO_RESTART     :       true
    --> AEIC              :       false
    --> BIOFUEL           :       false
    --> BOND              :       false
    --> BRAVO             :       false
    --> CAC               :       false
    --> C2H6              :       false
    --> EDGAR             :       false
    --> HTAP              :       false
    --> EMEP              :       false 
    --> GEIA              :       false
    --> LIANG_BROMOCARB   :       false
    --> NEI2005           :       false
    --> NEI2016v1         : on    true
    --> RETRO             :       false
    --> SHIP              : on    true
    --> NEI2016v1_SHIP    : on    true
    --> MIX               :       false
    --> STREETS           :       false
    --> VOLCANO           :       false
    --> RCP_3PD           :       false 
    --> RCP_45            :       false
    --> RCP_60            :       false
    --> RCP_85            :       false
    --> QFED2             :       false
    --> +UValbedo+        :       false
    --> +TOMS_SBUV_O3+    :       false
    --> +LinStratChem+    :       false
    --> CEDS              :       false
    --> OMI_HTAP_SO2      :       false
# -----------------------------------------------------------------------------
100     Custom            : off   - 
101     SeaFlux           : off   DMS/ACET
102     ParaNOx           : off   NO/NO2/O3/HNO3
    --> LUT data format   :       nc
    --> LUT source dir    :       $ROOT/PARANOX/v2015-02
103     LightNOx          : off   NO
    --> OTD-LIS factors   :       true
    --> CDF table         :       $ROOT/LIGHTNOX/v2014-07/light_dist.ott2010.dat
104     SoilNOx           : off   NO 
    --> Use fertilizer NOx:       true
105     DustDead          : off   DST1/DST2/DST3/DST4 
106     DustGinoux        : off   DST1/DST2/DST3/DST4
107     SeaSalt           : off   SALA/SALC/Br2
    --> SALA lower radius :       0.01 
    --> SALA upper radius :       0.5
    --> SALC lower radius :       0.5
    --> SALC upper radius :       8.0
    --> Emit Br2          :       true  
    --> Br2 scaling       :       1.0 
108     MEGAN             : off   ISOP/ACET/PRPE/C2H4/ALD2
    --> Isoprene scaling  :       1.0 
109     MEGAN_Mono        : off   CO/OCPI/MONX
110     MEGAN_SOA         : off   MTPA/MTPO/LIMO/SESQ
111     GFED              : off   NO/CO/ALK4/ACET/MEK/ALD2/PRPE/C3H8/CH2O/C2H6/SO2/NH3/BCPO/BCPI/OCPO/OCPI/POA1/NAP
    --> GFED3             :       false 
    --> GFED4             :       true
    --> GFED_daily        :       false
    --> GFED_3hourly      :       false
    --> CO scale factor   :       1.05
    --> POA scale factor  :       1.27
    --> NAP scale factor  :       2.75e-4
    --> hydrophilic BC    :       0.2
    --> hydrophilic OC    :       0.5
114     FINN              : off   NO/CO/ALK4/ACET/MEK/ALD2/PRPE/C3H8/CH2O/C2H6/SO2/NH3/BCPI/BCPO/OCPI/OCPO/GLYC/HAC
    --> FINN_daily        :       false
    --> CO scale factor   :       1.0
    --> hydrophilic BC    :       0.2
    --> hydrophilic OC    :       0.5

### END SECTION EXTENSION SWITCHES ###

###############################################################################
### BEGIN SECTION BASE EMISSIONS 
###############################################################################

# ExtNr	Name sourceFile	sourceVar sourceTime C/R/E SrcDim SrcUnit Species ScalIDs Cat Hier
0 UNIFORM 1.0 - * C xy kg/m2/s NO - 1 5

#==============================================================================
# --- NEI2016v1 (USA) ---
#==============================================================================
(((NEI2016v1
# SURFACE AFDUSTADJ INVENTORY
0 NEI2016v1_AFDUSTADJ_PEC            $ROOT/NEI2016v1/v2020-07/$MM/NEI2016v1_0.1x0.1_2016$MM$DD_afdustadj.nc          PEC           2016/1-12/1-31/$HH C xy  kg/m2/s  PEC         1007     1 50
0 NEI2016v1_AFDUSTADJ_POC            $ROOT/NEI2016v1/v2020-07/$MM/NEI2016v1_0.1x0.1_2016$MM$DD_afdustadj.nc          POC           2016/1-12/1-31/$HH C xy  kg/m2/s  POC         1007     1 50
0 NEI2016v1_AFDUSTADJ_PAL            $ROOT/NEI2016v1/v2020-07/$MM/NEI2016v1_0.1x0.1_2016$MM$DD_afdustadj.nc          PAL           2016/1-12/1-31/$HH C xy  kg/m2/s  PAL         1007     1 50
0 NEI2016v1_AFDUSTADJ_PCA            $ROOT/NEI2016v1/v2020-07/$MM/NEI2016v1_0.1x0.1_2016$MM$DD_afdustadj.nc          PCA           2016/1-12/1-31/$HH C xy  kg/m2/s  PCA         1007     1 50
0 NEI2016v1_AFDUSTADJ_PCL            $ROOT/NEI2016v1/v2020-07/$MM/NEI2016v1_0.1x0.1_2016$MM$DD_afdustadj.nc          PCL           2016/1-12/1-31/$HH C xy  kg/m2/s  PCL         1007     1 50
0 NEI2016v1_AFDUSTADJ_PFE            $ROOT/NEI2016v1/v2020-07/$MM/NEI2016v1_0.1x0.1_2016$MM$DD_afdustadj.nc          PFE           2016/1-12/1-31/$HH C xy  kg/m2/s  PFE         1007     1 50
0 NEI2016v1_AFDUSTADJ_PH2O           $ROOT/NEI2016v1/v2020-07/$MM/NEI2016v1_0.1x0.1_2016$MM$DD_afdustadj.nc          PH2O          2016/1-12/1-31/$HH C xy  kg/m2/s  PH2O        1007     1 50
0 NEI2016v1_AFDUSTADJ_PK             $ROOT/NEI2016v1/v2020-07/$MM/NEI2016v1_0.1x0.1_2016$MM$DD_afdustadj.nc          PK            2016/1-12/1-31/$HH C xy  kg/m2/s  PK          1007     1 50
0 NEI2016v1_AFDUSTADJ_PMG            $ROOT/NEI2016v1/v2020-07/$MM/NEI2016v1_0.1x0.1_2016$MM$DD_afdustadj.nc          PMG           2016/1-12/1-31/$HH C xy  kg/m2/s  PMG         1007     1 50
0 NEI2016v1_AFDUSTADJ_PMN            $ROOT/NEI2016v1/v2020-07/$MM/NEI2016v1_0.1x0.1_2016$MM$DD_afdustadj.nc          PMN           2016/1-12/1-31/$HH C xy  kg/m2/s  PMN         1007     1 50
0 NEI2016v1_AFDUSTADJ_PMOTHR         $ROOT/NEI2016v1/v2020-07/$MM/NEI2016v1_0.1x0.1_2016$MM$DD_afdustadj.nc          PMOTHR        2016/1-12/1-31/$HH C xy  kg/m2/s  PMOTHR      1007     1 50
0 NEI2016v1_AFDUSTADJ_PNA            $ROOT/NEI2016v1/v2020-07/$MM/NEI2016v1_0.1x0.1_2016$MM$DD_afdustadj.nc          PNA           2016/1-12/1-31/$HH C xy  kg/m2/s  PNA         1007     1 50
0 NEI2016v1_AFDUSTADJ_PNCOM          $ROOT/NEI2016v1/v2020-07/$MM/NEI2016v1_0.1x0.1_2016$MM$DD_afdustadj.nc          PNCOM         2016/1-12/1-31/$HH C xy  kg/m2/s  PNCOM       1007     1 50
0 NEI2016v1_AFDUSTADJ_PNH4           $ROOT/NEI2016v1/v2020-07/$MM/NEI2016v1_0.1x0.1_2016$MM$DD_afdustadj.nc          PNH4          2016/1-12/1-31/$HH C xy  kg/m2/s  PNH4        1007     1 50
0 NEI2016v1_AFDUSTADJ_PNO3           $ROOT/NEI2016v1/v2020-07/$MM/NEI2016v1_0.1x0.1_2016$MM$DD_afdustadj.nc          PNO3          2016/1-12/1-31/$HH C xy  kg/m2/s  PNO3        1007     1 50
0 NEI2016v1_AFDUSTADJ_PTI            $ROOT/NEI2016v1/v2020-07/$MM/NEI2016v1_0.1x0.1_2016$MM$DD_afdustadj.nc          PTI           2016/1-12/1-31/$HH C xy  kg/m2/s  PTI         1007     1 50
0 NEI2016v1_AFDUSTADJ_PSI            $ROOT/NEI2016v1/v2020-07/$MM/NEI2016v1_0.1x0.1_2016$MM$DD_afdustadj.nc          PSI           2016/1-12/1-31/$HH C xy  kg/m2/s  PSI         1007     1 50
0 NEI2016v1_AFDUSTADJ_PMC            $ROOT/NEI2016v1/v2020-07/$MM/NEI2016v1_0.1x0.1_2016$MM$DD_afdustadj.nc          PMC           2016/1-12/1-31/$HH C xy  kg/m2/s  PMC         1007     1 50
0 NEI2016v1_AFDUSTADJ_PSO4           $ROOT/NEI2016v1/v2020-07/$MM/NEI2016v1_0.1x0.1_2016$MM$DD_afdustadj.nc          PSO4          2016/1-12/1-31/$HH C xy  kg/m2/s  PSO4        1007     1 50

# SURFACE AG INVENTORY
0 NEI2016v1_AG_NH3            $ROOT/NEI2016v1/v2020-07/$MM/NEI2016v1_0.1x0.1_2016$MM$DD_ag.nc          NH3           2016/1-12/1-31/$HH C xy  kg/m2/s  NH3          1007     2 50
0 NEI2016v1_AG_NH3_FERT       $ROOT/NEI2016v1/v2020-07/$MM/NEI2016v1_0.1x0.1_2016$MM$DD_ag.nc          NH3_FERT      2016/1-12/1-31/$HH C xy  kg/m2/s  NH3_FERT     1007     2 50

# SURFACE AIRPORTS INVENTORY
0 NEI2016v1_AIRPORTS_CO             $ROOT/NEI2016v1/v2020-07/$MM/NEI2016v1_0.1x0.1_2016$MM$DD_airports.nc          CO            2016/1-12/1-31/$HH C xy  kg/m2/s  CO           1007     3 50
0 NEI2016v1_AIRPORTS_SO2            $ROOT/NEI2016v1/v2020-07/$MM/NEI2016v1_0.1x0.1_2016$MM$DD_airports.nc          SO2           2016/1-12/1-31/$HH C xy  kg/m2/s  SO2          1007     3 50
0 NEI2016v1_AIRPORTS_NO             $ROOT/NEI2016v1/v2020-07/$MM/NEI2016v1_0.1x0.1_2016$MM$DD_airports.nc          NO            2016/1-12/1-31/$HH C xy  kg/m2/s  NOT          1007     3 50
0 NEI2016v1_AIRPORTS_NO2            $ROOT/NEI2016v1/v2020-07/$MM/NEI2016v1_0.1x0.1_2016$MM$DD_airports.nc          NO2           2016/1-12/1-31/$HH C xy  kg/m2/s  NO2          1007     3 50
0 NEI2016v1_AIRPORTS_HONO           $ROOT/NEI2016v1/v2020-07/$MM/NEI2016v1_0.1x0.1_2016$MM$DD_airports.nc          HONO          2016/1-12/1-31/$HH C xy  kg/m2/s  HONO         1007     3 50
0 NEI2016v1_AIRPORTS_SULF           $ROOT/NEI2016v1/v2020-07/$MM/NEI2016v1_0.1x0.1_2016$MM$DD_airports.nc          SULF          2016/1-12/1-31/$HH C xy  kg/m2/s  SULF         1007     3 50
0 NEI2016v1_AIRPORTS_CH4            $ROOT/NEI2016v1/v2020-07/$MM/NEI2016v1_0.1x0.1_2016$MM$DD_airports.nc          CH4           2016/1-12/1-31/$HH C xy  kg/m2/s  CH4          1007     3 50
0 NEI2016v1_AIRPORTS_ACROLEIN       $ROOT/NEI2016v1/v2020-07/$MM/NEI2016v1_0.1x0.1_2016$MM$DD_airports.nc          ACROLEIN      2016/1-12/1-31/$HH C xy  kgC/m2/s ACROLEIN     1007     3 50
0 NEI2016v1_AIRPORTS_BUTADIENE13    $ROOT/NEI2016v1/v2020-07/$MM/NEI2016v1_0.1x0.1_2016$MM$DD_airports.nc          BUTADIENE13   2016/1-12/1-31/$HH C xy  kgC/m2/s BUTADIENE13  1007     3 50
0 NEI2016v1_AIRPORTS_ETHY           $ROOT/NEI2016v1/v2020-07/$MM/NEI2016v1_0.1x0.1_2016$MM$DD_airports.nc          ETHY          2016/1-12/1-31/$HH C xy  kgC/m2/s ETHY         1007     3 50
0 NEI2016v1_AIRPORTS_TERP           $ROOT/NEI2016v1/v2020-07/$MM/NEI2016v1_0.1x0.1_2016$MM$DD_airports.nc          TERP          2016/1-12/1-31/$HH C xy  kgC/m2/s TERP         1007     3 50
0 NEI2016v1_AIRPORTS_FORM           $ROOT/NEI2016v1/v2020-07/$MM/NEI2016v1_0.1x0.1_2016$MM$DD_airports.nc          FORM          2016/1-12/1-31/$HH C xy  kgC/m2/s FORM         1007     3 50
0 NEI2016v1_AIRPORTS_PAR            $ROOT/NEI2016v1/v2020-07/$MM/NEI2016v1_0.1x0.1_2016$MM$DD_airports.nc          PAR           2016/1-12/1-31/$HH C xy  kgC/m2/s PAR          1007     3 50
0 NEI2016v1_AIRPORTS_IOLE           $ROOT/NEI2016v1/v2020-07/$MM/NEI2016v1_0.1x0.1_2016$MM$DD_airports.nc          IOLE          2016/1-12/1-31/$HH C xy  kgC/m2/s IOLE        1007     3 50
0 NEI2016v1_AIRPORTS_OLE            $ROOT/NEI2016v1/v2020-07/$MM/NEI2016v1_0.1x0.1_2016$MM$DD_airports.nc          OLE           2016/1-12/1-31/$HH C xy  kgC/m2/s OLE         1007     3 50
0 NEI2016v1_AIRPORTS_ETH            $ROOT/NEI2016v1/v2020-07/$MM/NEI2016v1_0.1x0.1_2016$MM$DD_airports.nc          ETH           2016/1-12/1-31/$HH C xy  kgC/m2/s ETH         1007     3 50
0 NEI2016v1_AIRPORTS_ETHA           $ROOT/NEI2016v1/v2020-07/$MM/NEI2016v1_0.1x0.1_2016$MM$DD_airports.nc          ETHA          2016/1-12/1-31/$HH C xy  kgC/m2/s ETHA        1007     3 50
0 NEI2016v1_AIRPORTS_ETOH           $ROOT/NEI2016v1/v2020-07/$MM/NEI2016v1_0.1x0.1_2016$MM$DD_airports.nc          ETOH          2016/1-12/1-31/$HH C xy  kgC/m2/s ETOH        1007     3 50
0 NEI2016v1_AIRPORTS_MEOH           $ROOT/NEI2016v1/v2020-07/$MM/NEI2016v1_0.1x0.1_2016$MM$DD_airports.nc          MEOH          2016/1-12/1-31/$HH C xy  kgC/m2/s MEOH        1007     3 50
0 NEI2016v1_AIRPORTS_BENZ           $ROOT/NEI2016v1/v2020-07/$MM/NEI2016v1_0.1x0.1_2016$MM$DD_airports.nc          BENZ          2016/1-12/1-31/$HH C xy  kgC/m2/s BENZ        1007     3 50
0 NEI2016v1_AIRPORTS_TOL            $ROOT/NEI2016v1/v2020-07/$MM/NEI2016v1_0.1x0.1_2016$MM$DD_airports.nc          TOL           2016/1-12/1-31/$HH C xy  kgC/m2/s TOL         1007     3 50
0 NEI2016v1_AIRPORTS_XYLMN          $ROOT/NEI2016v1/v2020-07/$MM/NEI2016v1_0.1x0.1_2016$MM$DD_airports.nc          XYLMN         2016/1-12/1-31/$HH C xy  kgC/m2/s XYLMN       1007     3 50
0 NEI2016v1_AIRPORTS_NAPH           $ROOT/NEI2016v1/v2020-07/$MM/NEI2016v1_0.1x0.1_2016$MM$DD_airports.nc          NAPH          2016/1-12/1-31/$HH C xy  kgC/m2/s NAPH        1007     3 50
0 NEI2016v1_AIRPORTS_ALD2           $ROOT/NEI2016v1/v2020-07/$MM/NEI2016v1_0.1x0.1_2016$MM$DD_airports.nc          ALD2          2016/1-12/1-31/$HH C xy  kgC/m2/s ALD2        1007     3 50
0 NEI2016v1_AIRPORTS_ALDX           $ROOT/NEI2016v1/v2020-07/$MM/NEI2016v1_0.1x0.1_2016$MM$DD_airports.nc          ALDX          2016/1-12/1-31/$HH C xy  kgC/m2/s ALDX        1007     3 50
0 NEI2016v1_AIRPORTS_ISOP           $ROOT/NEI2016v1/v2020-07/$MM/NEI2016v1_0.1x0.1_2016$MM$DD_airports.nc          ISOP          2016/1-12/1-31/$HH C xy  kgC/m2/s ISOP        1007     3 50
0 NEI2016v1_AIRPORTS_PRPA           $ROOT/NEI2016v1/v2020-07/$MM/NEI2016v1_0.1x0.1_2016$MM$DD_airports.nc          PRPA          2016/1-12/1-31/$HH C xy  kgC/m2/s PRPA        1007     3 50
0 NEI2016v1_AIRPORTS_ACET           $ROOT/NEI2016v1/v2020-07/$MM/NEI2016v1_0.1x0.1_2016$MM$DD_airports.nc          ACET          2016/1-12/1-31/$HH C xy  kgC/m2/s ACET        1007     3 50
0 NEI2016v1_AIRPORTS_KET            $ROOT/NEI2016v1/v2020-07/$MM/NEI2016v1_0.1x0.1_2016$MM$DD_airports.nc          KET           2016/1-12/1-31/$HH C xy  kgC/m2/s KET         1007     3 50
0 NEI2016v1_AIRPORTS_ALD2_PRIMARY   $ROOT/NEI2016v1/v2020-07/$MM/NEI2016v1_0.1x0.1_2016$MM$DD_airports.nc          ALD2_PRIMARY  2016/1-12/1-31/$HH C xy  kgC/m2/s ALD2_PRIMARY 1007    3 50
0 NEI2016v1_AIRPORTS_FORM_PRIMARY   $ROOT/NEI2016v1/v2020-07/$MM/NEI2016v1_0.1x0.1_2016$MM$DD_airports.nc          FORM_PRIMARY  2016/1-12/1-31/$HH C xy  kgC/m2/s FORM_PRIMARY 1007    3 50
0 NEI2016v1_AIRPORTS_SOAALK         $ROOT/NEI2016v1/v2020-07/$MM/NEI2016v1_0.1x0.1_2016$MM$DD_airports.nc          SOAALK        2016/1-12/1-31/$HH C xy  kgC/m2/s SOAALK      1007     3 50
0 NEI2016v1_AIRPORTS_PEC            $ROOT/NEI2016v1/v2020-07/$MM/NEI2016v1_0.1x0.1_2016$MM$DD_airports.nc          PEC           2016/1-12/1-31/$HH C xy  kg/m2/s  PEC         1007     3 50
0 NEI2016v1_AIRPORTS_POC            $ROOT/NEI2016v1/v2020-07/$MM/NEI2016v1_0.1x0.1_2016$MM$DD_airports.nc          POC           2016/1-12/1-31/$HH C xy  kg/m2/s  POC         1007     3 50
0 NEI2016v1_AIRPORTS_PAL            $ROOT/NEI2016v1/v2020-07/$MM/NEI2016v1_0.1x0.1_2016$MM$DD_airports.nc          PAL           2016/1-12/1-31/$HH C xy  kg/m2/s  PAL         1007     3 50
0 NEI2016v1_AIRPORTS_PCA            $ROOT/NEI2016v1/v2020-07/$MM/NEI2016v1_0.1x0.1_2016$MM$DD_airports.nc          PCA           2016/1-12/1-31/$HH C xy  kg/m2/s  PCA         1007     3 50
0 NEI2016v1_AIRPORTS_PCL            $ROOT/NEI2016v1/v2020-07/$MM/NEI2016v1_0.1x0.1_2016$MM$DD_airports.nc          PCL           2016/1-12/1-31/$HH C xy  kg/m2/s  PCL         1007     3 50
0 NEI2016v1_AIRPORTS_PFE            $ROOT/NEI2016v1/v2020-07/$MM/NEI2016v1_0.1x0.1_2016$MM$DD_airports.nc          PFE           2016/1-12/1-31/$HH C xy  kg/m2/s  PFE         1007     3 50
0 NEI2016v1_AIRPORTS_PH2O           $ROOT/NEI2016v1/v2020-07/$MM/NEI2016v1_0.1x0.1_2016$MM$DD_airports.nc          PH2O          2016/1-12/1-31/$HH C xy  kg/m2/s  PH2O        1007     3 50
0 NEI2016v1_AIRPORTS_PK             $ROOT/NEI2016v1/v2020-07/$MM/NEI2016v1_0.1x0.1_2016$MM$DD_airports.nc          PK            2016/1-12/1-31/$HH C xy  kg/m2/s  PK          1007     3 50
0 NEI2016v1_AIRPORTS_PMG            $ROOT/NEI2016v1/v2020-07/$MM/NEI2016v1_0.1x0.1_2016$MM$DD_airports.nc          PMG           2016/1-12/1-31/$HH C xy  kg/m2/s  PMG         1007     3 50
0 NEI2016v1_AIRPORTS_PMN            $ROOT/NEI2016v1/v2020-07/$MM/NEI2016v1_0.1x0.1_2016$MM$DD_airports.nc          PMN           2016/1-12/1-31/$HH C xy  kg/m2/s  PMN         1007     3 50
0 NEI2016v1_AIRPORTS_PMOTHR         $ROOT/NEI2016v1/v2020-07/$MM/NEI2016v1_0.1x0.1_2016$MM$DD_airports.nc          PMOTHR        2016/1-12/1-31/$HH C xy  kg/m2/s  PMOTHR      1007     3 50
0 NEI2016v1_AIRPORTS_PNA            $ROOT/NEI2016v1/v2020-07/$MM/NEI2016v1_0.1x0.1_2016$MM$DD_airports.nc          PNA           2016/1-12/1-31/$HH C xy  kg/m2/s  PNA         1007     3 50
0 NEI2016v1_AIRPORTS_PNCOM          $ROOT/NEI2016v1/v2020-07/$MM/NEI2016v1_0.1x0.1_2016$MM$DD_airports.nc          PNCOM         2016/1-12/1-31/$HH C xy  kg/m2/s  PNCOM       1007     3 50
0 NEI2016v1_AIRPORTS_PNH4           $ROOT/NEI2016v1/v2020-07/$MM/NEI2016v1_0.1x0.1_2016$MM$DD_airports.nc          PNH4          2016/1-12/1-31/$HH C xy  kg/m2/s  PNH4        1007     3 50
0 NEI2016v1_AIRPORTS_PNO3           $ROOT/NEI2016v1/v2020-07/$MM/NEI2016v1_0.1x0.1_2016$MM$DD_airports.nc          PNO3          2016/1-12/1-31/$HH C xy  kg/m2/s  PNO3        1007     3 50
0 NEI2016v1_AIRPORTS_PTI            $ROOT/NEI2016v1/v2020-07/$MM/NEI2016v1_0.1x0.1_2016$MM$DD_airports.nc          PTI           2016/1-12/1-31/$HH C xy  kg/m2/s  PTI         1007     3 50
0 NEI2016v1_AIRPORTS_PSI            $ROOT/NEI2016v1/v2020-07/$MM/NEI2016v1_0.1x0.1_2016$MM$DD_airports.nc          PSI           2016/1-12/1-31/$HH C xy  kg/m2/s  PSI         1007     3 50
0 NEI2016v1_AIRPORTS_PMC            $ROOT/NEI2016v1/v2020-07/$MM/NEI2016v1_0.1x0.1_2016$MM$DD_airports.nc          PMC           2016/1-12/1-31/$HH C xy  kg/m2/s  PMC         1007     3 50
0 NEI2016v1_AIRPORTS_PSO4           $ROOT/NEI2016v1/v2020-07/$MM/NEI2016v1_0.1x0.1_2016$MM$DD_airports.nc          PSO4          2016/1-12/1-31/$HH C xy  kg/m2/s  PSO4        1007     3 50

# SURFACE NONROAD INVENTORY
0 NEI2016v1_NONROAD_CO             $ROOT/NEI2016v1/v2020-07/$MM/NEI2016v1_0.1x0.1_2016$MM$DD_nonroad.nc          CO            2016/1-12/1-31/$HH C xy  kg/m2/s  CO           1007     4 50
0 NEI2016v1_NONROAD_SO2            $ROOT/NEI2016v1/v2020-07/$MM/NEI2016v1_0.1x0.1_2016$MM$DD_nonroad.nc          SO2           2016/1-12/1-31/$HH C xy  kg/m2/s  SO2          1007     4 50
0 NEI2016v1_NONROAD_NO             $ROOT/NEI2016v1/v2020-07/$MM/NEI2016v1_0.1x0.1_2016$MM$DD_nonroad.nc          NO            2016/1-12/1-31/$HH C xy  kg/m2/s  NOT          1007     4 50
0 NEI2016v1_NONROAD_NO2            $ROOT/NEI2016v1/v2020-07/$MM/NEI2016v1_0.1x0.1_2016$MM$DD_nonroad.nc          NO2           2016/1-12/1-31/$HH C xy  kg/m2/s  NO2          1007     4 50
0 NEI2016v1_NONROAD_HONO           $ROOT/NEI2016v1/v2020-07/$MM/NEI2016v1_0.1x0.1_2016$MM$DD_nonroad.nc          HONO          2016/1-12/1-31/$HH C xy  kg/m2/s  HONO         1007     4 50
0 NEI2016v1_NONROAD_SULF           $ROOT/NEI2016v1/v2020-07/$MM/NEI2016v1_0.1x0.1_2016$MM$DD_nonroad.nc          SULF          2016/1-12/1-31/$HH C xy  kg/m2/s  SULF         1007     4 50
0 NEI2016v1_NONROAD_NH3            $ROOT/NEI2016v1/v2020-07/$MM/NEI2016v1_0.1x0.1_2016$MM$DD_nonroad.nc          NH3           2016/1-12/1-31/$HH C xy  kg/m2/s  NH3          1007     4 50
0 NEI2016v1_NONROAD_NH3_FERT       $ROOT/NEI2016v1/v2020-07/$MM/NEI2016v1_0.1x0.1_2016$MM$DD_nonroad.nc          NH3_FERT      2016/1-12/1-31/$HH C xy  kg/m2/s  NH3_FERT     1007     4 50
0 NEI2016v1_NONROAD_CH4            $ROOT/NEI2016v1/v2020-07/$MM/NEI2016v1_0.1x0.1_2016$MM$DD_nonroad.nc          CH4           2016/1-12/1-31/$HH C xy  kg/m2/s  CH4          1007     4 50
0 NEI2016v1_NONROAD_ACROLEIN       $ROOT/NEI2016v1/v2020-07/$MM/NEI2016v1_0.1x0.1_2016$MM$DD_nonroad.nc          ACROLEIN      2016/1-12/1-31/$HH C xy  kgC/m2/s ACROLEIN     1007     4 50
0 NEI2016v1_NONROAD_BUTADIENE13    $ROOT/NEI2016v1/v2020-07/$MM/NEI2016v1_0.1x0.1_2016$MM$DD_nonroad.nc          BUTADIENE13   2016/1-12/1-31/$HH C xy  kgC/m2/s BUTADIENE13  1007     4 50
0 NEI2016v1_NONROAD_ETHY           $ROOT/NEI2016v1/v2020-07/$MM/NEI2016v1_0.1x0.1_2016$MM$DD_nonroad.nc          ETHY          2016/1-12/1-31/$HH C xy  kgC/m2/s ETHY         1007     4 50
0 NEI2016v1_NONROAD_TERP           $ROOT/NEI2016v1/v2020-07/$MM/NEI2016v1_0.1x0.1_2016$MM$DD_nonroad.nc          TERP          2016/1-12/1-31/$HH C xy  kgC/m2/s TERP         1007     4 50
0 NEI2016v1_NONROAD_FORM           $ROOT/NEI2016v1/v2020-07/$MM/NEI2016v1_0.1x0.1_2016$MM$DD_nonroad.nc          FORM          2016/1-12/1-31/$HH C xy  kgC/m2/s FORM         1007     4 50
0 NEI2016v1_NONROAD_PAR            $ROOT/NEI2016v1/v2020-07/$MM/NEI2016v1_0.1x0.1_2016$MM$DD_nonroad.nc          PAR           2016/1-12/1-31/$HH C xy  kgC/m2/s PAR          1007     4 50
0 NEI2016v1_NONROAD_IOLE           $ROOT/NEI2016v1/v2020-07/$MM/NEI2016v1_0.1x0.1_2016$MM$DD_nonroad.nc          IOLE          2016/1-12/1-31/$HH C xy  kgC/m2/s IOLE         1007     4 50
0 NEI2016v1_NONROAD_OLE            $ROOT/NEI2016v1/v2020-07/$MM/NEI2016v1_0.1x0.1_2016$MM$DD_nonroad.nc          OLE           2016/1-12/1-31/$HH C xy  kgC/m2/s OLE          1007     4 50
0 NEI2016v1_NONROAD_ETH            $ROOT/NEI2016v1/v2020-07/$MM/NEI2016v1_0.1x0.1_2016$MM$DD_nonroad.nc          ETH           2016/1-12/1-31/$HH C xy  kgC/m2/s ETH          1007     4 50
0 NEI2016v1_NONROAD_ETHA           $ROOT/NEI2016v1/v2020-07/$MM/NEI2016v1_0.1x0.1_2016$MM$DD_nonroad.nc          ETHA          2016/1-12/1-31/$HH C xy  kgC/m2/s ETHA         1007     4 50
0 NEI2016v1_NONROAD_ETOH           $ROOT/NEI2016v1/v2020-07/$MM/NEI2016v1_0.1x0.1_2016$MM$DD_nonroad.nc          ETOH          2016/1-12/1-31/$HH C xy  kgC/m2/s ETOH         1007     4 50
0 NEI2016v1_NONROAD_MEOH           $ROOT/NEI2016v1/v2020-07/$MM/NEI2016v1_0.1x0.1_2016$MM$DD_nonroad.nc          MEOH          2016/1-12/1-31/$HH C xy  kgC/m2/s MEOH         1007     4 50
0 NEI2016v1_NONROAD_BENZ           $ROOT/NEI2016v1/v2020-07/$MM/NEI2016v1_0.1x0.1_2016$MM$DD_nonroad.nc          BENZ          2016/1-12/1-31/$HH C xy  kgC/m2/s BENZ         1007     4 50
0 NEI2016v1_NONROAD_TOL            $ROOT/NEI2016v1/v2020-07/$MM/NEI2016v1_0.1x0.1_2016$MM$DD_nonroad.nc          TOL           2016/1-12/1-31/$HH C xy  kgC/m2/s TOL          1007     4 50
0 NEI2016v1_NONROAD_XYLMN          $ROOT/NEI2016v1/v2020-07/$MM/NEI2016v1_0.1x0.1_2016$MM$DD_nonroad.nc          XYLMN         2016/1-12/1-31/$HH C xy  kgC/m2/s XYLMN        1007     4 50
0 NEI2016v1_NONROAD_NAPH           $ROOT/NEI2016v1/v2020-07/$MM/NEI2016v1_0.1x0.1_2016$MM$DD_nonroad.nc          NAPH          2016/1-12/1-31/$HH C xy  kgC/m2/s NAPH         1007     4 50
0 NEI2016v1_NONROAD_ALD2           $ROOT/NEI2016v1/v2020-07/$MM/NEI2016v1_0.1x0.1_2016$MM$DD_nonroad.nc          ALD2          2016/1-12/1-31/$HH C xy  kgC/m2/s ALD2         1007     4 50
0 NEI2016v1_NONROAD_ALDX           $ROOT/NEI2016v1/v2020-07/$MM/NEI2016v1_0.1x0.1_2016$MM$DD_nonroad.nc          ALDX          2016/1-12/1-31/$HH C xy  kgC/m2/s ALDX         1007     4 50
0 NEI2016v1_NONROAD_ISOP           $ROOT/NEI2016v1/v2020-07/$MM/NEI2016v1_0.1x0.1_2016$MM$DD_nonroad.nc          ISOP          2016/1-12/1-31/$HH C xy  kgC/m2/s ISOP         1007     4 50
0 NEI2016v1_NONROAD_PRPA           $ROOT/NEI2016v1/v2020-07/$MM/NEI2016v1_0.1x0.1_2016$MM$DD_nonroad.nc          PRPA          2016/1-12/1-31/$HH C xy  kgC/m2/s PRPA         1007     4 50
0 NEI2016v1_NONROAD_ACET           $ROOT/NEI2016v1/v2020-07/$MM/NEI2016v1_0.1x0.1_2016$MM$DD_nonroad.nc          ACET          2016/1-12/1-31/$HH C xy  kgC/m2/s ACET         1007     4 50
0 NEI2016v1_NONROAD_KET            $ROOT/NEI2016v1/v2020-07/$MM/NEI2016v1_0.1x0.1_2016$MM$DD_nonroad.nc          KET           2016/1-12/1-31/$HH C xy  kgC/m2/s KET          1007     4 50
0 NEI2016v1_NONROAD_ALD2_PRIMARY   $ROOT/NEI2016v1/v2020-07/$MM/NEI2016v1_0.1x0.1_2016$MM$DD_nonroad.nc          ALD2_PRIMARY  2016/1-12/1-31/$HH C xy  kgC/m2/s ALD2_PRIMARY 1007     4 50
0 NEI2016v1_NONROAD_FORM_PRIMARY   $ROOT/NEI2016v1/v2020-07/$MM/NEI2016v1_0.1x0.1_2016$MM$DD_nonroad.nc          FORM_PRIMARY  2016/1-12/1-31/$HH C xy  kgC/m2/s FORM_PRIMARY 1007     4 50
0 NEI2016v1_NONROAD_SOAALK         $ROOT/NEI2016v1/v2020-07/$MM/NEI2016v1_0.1x0.1_2016$MM$DD_nonroad.nc          SOAALK        2016/1-12/1-31/$HH C xy  kgC/m2/s SOAALK       1007     4 50
0 NEI2016v1_NONROAD_PEC            $ROOT/NEI2016v1/v2020-07/$MM/NEI2016v1_0.1x0.1_2016$MM$DD_nonroad.nc          PEC           2016/1-12/1-31/$HH C xy  kg/m2/s  PEC          1007     4 50
0 NEI2016v1_NONROAD_POC            $ROOT/NEI2016v1/v2020-07/$MM/NEI2016v1_0.1x0.1_2016$MM$DD_nonroad.nc          POC           2016/1-12/1-31/$HH C xy  kg/m2/s  POC          1007     4 50
0 NEI2016v1_NONROAD_PAL            $ROOT/NEI2016v1/v2020-07/$MM/NEI2016v1_0.1x0.1_2016$MM$DD_nonroad.nc          PAL           2016/1-12/1-31/$HH C xy  kg/m2/s  PAL          1007     4 50
0 NEI2016v1_NONROAD_PCA            $ROOT/NEI2016v1/v2020-07/$MM/NEI2016v1_0.1x0.1_2016$MM$DD_nonroad.nc          PCA           2016/1-12/1-31/$HH C xy  kg/m2/s  PCA          1007     4 50
0 NEI2016v1_NONROAD_PCL            $ROOT/NEI2016v1/v2020-07/$MM/NEI2016v1_0.1x0.1_2016$MM$DD_nonroad.nc          PCL           2016/1-12/1-31/$HH C xy  kg/m2/s  PCL          1007     4 50
0 NEI2016v1_NONROAD_PFE            $ROOT/NEI2016v1/v2020-07/$MM/NEI2016v1_0.1x0.1_2016$MM$DD_nonroad.nc          PFE           2016/1-12/1-31/$HH C xy  kg/m2/s  PFE          1007     4 50
0 NEI2016v1_NONROAD_PH2O           $ROOT/NEI2016v1/v2020-07/$MM/NEI2016v1_0.1x0.1_2016$MM$DD_nonroad.nc          PH2O          2016/1-12/1-31/$HH C xy  kg/m2/s  PH2O         1007     4 50
0 NEI2016v1_NONROAD_PK             $ROOT/NEI2016v1/v2020-07/$MM/NEI2016v1_0.1x0.1_2016$MM$DD_nonroad.nc          PK            2016/1-12/1-31/$HH C xy  kg/m2/s  PK           1007     4 50
0 NEI2016v1_NONROAD_PMG            $ROOT/NEI2016v1/v2020-07/$MM/NEI2016v1_0.1x0.1_2016$MM$DD_nonroad.nc          PMG           2016/1-12/1-31/$HH C xy  kg/m2/s  PMG          1007     4 50
0 NEI2016v1_NONROAD_PMN            $ROOT/NEI2016v1/v2020-07/$MM/NEI2016v1_0.1x0.1_2016$MM$DD_nonroad.nc          PMN           2016/1-12/1-31/$HH C xy  kg/m2/s  PMN          1007     4 50
0 NEI2016v1_NONROAD_PMOTHR         $ROOT/NEI2016v1/v2020-07/$MM/NEI2016v1_0.1x0.1_2016$MM$DD_nonroad.nc          PMOTHR        2016/1-12/1-31/$HH C xy  kg/m2/s  PMOTHR       1007     4 50
0 NEI2016v1_NONROAD_PNA            $ROOT/NEI2016v1/v2020-07/$MM/NEI2016v1_0.1x0.1_2016$MM$DD_nonroad.nc          PNA           2016/1-12/1-31/$HH C xy  kg/m2/s  PNA          1007     4 50
0 NEI2016v1_NONROAD_PNCOM          $ROOT/NEI2016v1/v2020-07/$MM/NEI2016v1_0.1x0.1_2016$MM$DD_nonroad.nc          PNCOM         2016/1-12/1-31/$HH C xy  kg/m2/s  PNCOM        1007     4 50
0 NEI2016v1_NONROAD_PNH4           $ROOT/NEI2016v1/v2020-07/$MM/NEI2016v1_0.1x0.1_2016$MM$DD_nonroad.nc          PNH4          2016/1-12/1-31/$HH C xy  kg/m2/s  PNH4         1007     4 50
0 NEI2016v1_NONROAD_PNO3           $ROOT/NEI2016v1/v2020-07/$MM/NEI2016v1_0.1x0.1_2016$MM$DD_nonroad.nc          PNO3          2016/1-12/1-31/$HH C xy  kg/m2/s  PNO3         1007     4 50
0 NEI2016v1_NONROAD_PTI            $ROOT/NEI2016v1/v2020-07/$MM/NEI2016v1_0.1x0.1_2016$MM$DD_nonroad.nc          PTI           2016/1-12/1-31/$HH C xy  kg/m2/s  PTI          1007     4 50
0 NEI2016v1_NONROAD_PSI            $ROOT/NEI2016v1/v2020-07/$MM/NEI2016v1_0.1x0.1_2016$MM$DD_nonroad.nc          PSI           2016/1-12/1-31/$HH C xy  kg/m2/s  PSI          1007     4 50
0 NEI2016v1_NONROAD_PMC            $ROOT/NEI2016v1/v2020-07/$MM/NEI2016v1_0.1x0.1_2016$MM$DD_nonroad.nc          PMC           2016/1-12/1-31/$HH C xy  kg/m2/s  PMC          1007     4 50
0 NEI2016v1_NONROAD_PSO4           $ROOT/NEI2016v1/v2020-07/$MM/NEI2016v1_0.1x0.1_2016$MM$DD_nonroad.nc          PSO4          2016/1-12/1-31/$HH C xy  kg/m2/s  PSO4         1007     4 50

# SURFACE NONPT INVENTORY
0 NEI2016v1_NONPT_CO             $ROOT/NEI2016v1/v2020-07/$MM/NEI2016v1_0.1x0.1_2016$MM$DD_nonpt.nc          CO            2016/1-12/1-31/$HH C xy  kg/m2/s  CO           1007     5 50
0 NEI2016v1_NONPT_SO2            $ROOT/NEI2016v1/v2020-07/$MM/NEI2016v1_0.1x0.1_2016$MM$DD_nonpt.nc          SO2           2016/1-12/1-31/$HH C xy  kg/m2/s  SO2          1007     5 50
0 NEI2016v1_NONPT_NO             $ROOT/NEI2016v1/v2020-07/$MM/NEI2016v1_0.1x0.1_2016$MM$DD_nonpt.nc          NO            2016/1-12/1-31/$HH C xy  kg/m2/s  NOT          1007     5 50
0 NEI2016v1_NONPT_NO2            $ROOT/NEI2016v1/v2020-07/$MM/NEI2016v1_0.1x0.1_2016$MM$DD_nonpt.nc          NO2           2016/1-12/1-31/$HH C xy  kg/m2/s  NO2          1007     5 50
0 NEI2016v1_NONPT_HCL            $ROOT/NEI2016v1/v2020-07/$MM/NEI2016v1_0.1x0.1_2016$MM$DD_nonpt.nc          HCL           2016/1-12/1-31/$HH C xy  kg/m2/s  HCL          1007     5 50
0 NEI2016v1_NONPT_CL2            $ROOT/NEI2016v1/v2020-07/$MM/NEI2016v1_0.1x0.1_2016$MM$DD_nonpt.nc          CL2           2016/1-12/1-31/$HH C xy  kg/m2/s  CL2          1007     5 50
0 NEI2016v1_NONPT_HONO           $ROOT/NEI2016v1/v2020-07/$MM/NEI2016v1_0.1x0.1_2016$MM$DD_nonpt.nc          HONO          2016/1-12/1-31/$HH C xy  kg/m2/s  HONO         1007     5 50
0 NEI2016v1_NONPT_SULF           $ROOT/NEI2016v1/v2020-07/$MM/NEI2016v1_0.1x0.1_2016$MM$DD_nonpt.nc          SULF          2016/1-12/1-31/$HH C xy  kg/m2/s  SULF         1007     5 50
0 NEI2016v1_NONPT_NH3            $ROOT/NEI2016v1/v2020-07/$MM/NEI2016v1_0.1x0.1_2016$MM$DD_nonpt.nc          NH3           2016/1-12/1-31/$HH C xy  kg/m2/s  NH3          1007     5 50
0 NEI2016v1_NONPT_NH3_FERT       $ROOT/NEI2016v1/v2020-07/$MM/NEI2016v1_0.1x0.1_2016$MM$DD_nonpt.nc          NH3_FERT      2016/1-12/1-31/$HH C xy  kg/m2/s  NH3_FERT     1007     5 50
0 NEI2016v1_NONPT_CH4            $ROOT/NEI2016v1/v2020-07/$MM/NEI2016v1_0.1x0.1_2016$MM$DD_nonpt.nc          CH4           2016/1-12/1-31/$HH C xy  kg/m2/s  CH4          1007     5 50
0 NEI2016v1_NONPT_ACROLEIN       $ROOT/NEI2016v1/v2020-07/$MM/NEI2016v1_0.1x0.1_2016$MM$DD_nonpt.nc          ACROLEIN      2016/1-12/1-31/$HH C xy  kgC/m2/s ACROLEIN     1007     5 50
0 NEI2016v1_NONPT_BUTADIENE13    $ROOT/NEI2016v1/v2020-07/$MM/NEI2016v1_0.1x0.1_2016$MM$DD_nonpt.nc          BUTADIENE13   2016/1-12/1-31/$HH C xy  kgC/m2/s BUTADIENE13  1007     5 50
0 NEI2016v1_NONPT_ETHY           $ROOT/NEI2016v1/v2020-07/$MM/NEI2016v1_0.1x0.1_2016$MM$DD_nonpt.nc          ETHY          2016/1-12/1-31/$HH C xy  kgC/m2/s ETHY         1007     5 50
0 NEI2016v1_NONPT_TERP           $ROOT/NEI2016v1/v2020-07/$MM/NEI2016v1_0.1x0.1_2016$MM$DD_nonpt.nc          TERP          2016/1-12/1-31/$HH C xy  kgC/m2/s TERP         1007     5 50
0 NEI2016v1_NONPT_FORM           $ROOT/NEI2016v1/v2020-07/$MM/NEI2016v1_0.1x0.1_2016$MM$DD_nonpt.nc          FORM          2016/1-12/1-31/$HH C xy  kgC/m2/s FORM         1007     5 50
0 NEI2016v1_NONPT_PAR            $ROOT/NEI2016v1/v2020-07/$MM/NEI2016v1_0.1x0.1_2016$MM$DD_nonpt.nc          PAR           2016/1-12/1-31/$HH C xy  kgC/m2/s PAR          1007     5 50
0 NEI2016v1_NONPT_IOLE           $ROOT/NEI2016v1/v2020-07/$MM/NEI2016v1_0.1x0.1_2016$MM$DD_nonpt.nc          IOLE          2016/1-12/1-31/$HH C xy  kgC/m2/s IOLE        1007     5 50
0 NEI2016v1_NONPT_OLE            $ROOT/NEI2016v1/v2020-07/$MM/NEI2016v1_0.1x0.1_2016$MM$DD_nonpt.nc          OLE           2016/1-12/1-31/$HH C xy  kgC/m2/s OLE         1007     5 50
0 NEI2016v1_NONPT_ETH            $ROOT/NEI2016v1/v2020-07/$MM/NEI2016v1_0.1x0.1_2016$MM$DD_nonpt.nc          ETH           2016/1-12/1-31/$HH C xy  kgC/m2/s ETH         1007     5 50
0 NEI2016v1_NONPT_ETHA           $ROOT/NEI2016v1/v2020-07/$MM/NEI2016v1_0.1x0.1_2016$MM$DD_nonpt.nc          ETHA          2016/1-12/1-31/$HH C xy  kgC/m2/s ETHA        1007     5 50
0 NEI2016v1_NONPT_ETOH           $ROOT/NEI2016v1/v2020-07/$MM/NEI2016v1_0.1x0.1_2016$MM$DD_nonpt.nc          ETOH          2016/1-12/1-31/$HH C xy  kgC/m2/s ETOH        1007     5 50
0 NEI2016v1_NONPT_MEOH           $ROOT/NEI2016v1/v2020-07/$MM/NEI2016v1_0.1x0.1_2016$MM$DD_nonpt.nc          MEOH          2016/1-12/1-31/$HH C xy  kgC/m2/s MEOH        1007     5 50
0 NEI2016v1_NONPT_BENZ           $ROOT/NEI2016v1/v2020-07/$MM/NEI2016v1_0.1x0.1_2016$MM$DD_nonpt.nc          BENZ          2016/1-12/1-31/$HH C xy  kgC/m2/s BENZ        1007     5 50
0 NEI2016v1_NONPT_TOL            $ROOT/NEI2016v1/v2020-07/$MM/NEI2016v1_0.1x0.1_2016$MM$DD_nonpt.nc          TOL           2016/1-12/1-31/$HH C xy  kgC/m2/s TOL         1007     5 50
0 NEI2016v1_NONPT_XYLMN          $ROOT/NEI2016v1/v2020-07/$MM/NEI2016v1_0.1x0.1_2016$MM$DD_nonpt.nc          XYLMN         2016/1-12/1-31/$HH C xy  kgC/m2/s XYLMN       1007     5 50
0 NEI2016v1_NONPT_NAPH           $ROOT/NEI2016v1/v2020-07/$MM/NEI2016v1_0.1x0.1_2016$MM$DD_nonpt.nc          NAPH          2016/1-12/1-31/$HH C xy  kgC/m2/s NAPH        1007     5 50
0 NEI2016v1_NONPT_ALD2           $ROOT/NEI2016v1/v2020-07/$MM/NEI2016v1_0.1x0.1_2016$MM$DD_nonpt.nc          ALD2          2016/1-12/1-31/$HH C xy  kgC/m2/s ALD2        1007     5 50
0 NEI2016v1_NONPT_ALDX           $ROOT/NEI2016v1/v2020-07/$MM/NEI2016v1_0.1x0.1_2016$MM$DD_nonpt.nc          ALDX          2016/1-12/1-31/$HH C xy  kgC/m2/s ALDX        1007     5 50
0 NEI2016v1_NONPT_ISOP           $ROOT/NEI2016v1/v2020-07/$MM/NEI2016v1_0.1x0.1_2016$MM$DD_nonpt.nc          ISOP          2016/1-12/1-31/$HH C xy  kgC/m2/s ISOP        1007     5 50
0 NEI2016v1_NONPT_PRPA           $ROOT/NEI2016v1/v2020-07/$MM/NEI2016v1_0.1x0.1_2016$MM$DD_nonpt.nc          PRPA          2016/1-12/1-31/$HH C xy  kgC/m2/s PRPA        1007     5 50
0 NEI2016v1_NONPT_ACET           $ROOT/NEI2016v1/v2020-07/$MM/NEI2016v1_0.1x0.1_2016$MM$DD_nonpt.nc          ACET          2016/1-12/1-31/$HH C xy  kgC/m2/s ACET        1007     5 50
0 NEI2016v1_NONPT_KET            $ROOT/NEI2016v1/v2020-07/$MM/NEI2016v1_0.1x0.1_2016$MM$DD_nonpt.nc          KET           2016/1-12/1-31/$HH C xy  kgC/m2/s KET         1007     5 50
0 NEI2016v1_NONPT_ALD2_PRIMARY   $ROOT/NEI2016v1/v2020-07/$MM/NEI2016v1_0.1x0.1_2016$MM$DD_nonpt.nc          ALD2_PRIMARY  2016/1-12/1-31/$HH C xy  kgC/m2/s ALD2_PRIMARY 1007     5 50
0 NEI2016v1_NONPT_FORM_PRIMARY   $ROOT/NEI2016v1/v2020-07/$MM/NEI2016v1_0.1x0.1_2016$MM$DD_nonpt.nc          FORM_PRIMARY  2016/1-12/1-31/$HH C xy  kgC/m2/s FORM_PRIMARY 1007     5 50
0 NEI2016v1_NONPT_SOAALK         $ROOT/NEI2016v1/v2020-07/$MM/NEI2016v1_0.1x0.1_2016$MM$DD_nonpt.nc          SOAALK        2016/1-12/1-31/$HH C xy  kgC/m2/s SOAALK      1007     5 50
0 NEI2016v1_NONPT_PEC            $ROOT/NEI2016v1/v2020-07/$MM/NEI2016v1_0.1x0.1_2016$MM$DD_nonpt.nc          PEC           2016/1-12/1-31/$HH C xy  kg/m2/s  PEC         1007     5 50
0 NEI2016v1_NONPT_POC            $ROOT/NEI2016v1/v2020-07/$MM/NEI2016v1_0.1x0.1_2016$MM$DD_nonpt.nc          POC           2016/1-12/1-31/$HH C xy  kg/m2/s  POC         1007     5 50
0 NEI2016v1_NONPT_PAL            $ROOT/NEI2016v1/v2020-07/$MM/NEI2016v1_0.1x0.1_2016$MM$DD_nonpt.nc          PAL           2016/1-12/1-31/$HH C xy  kg/m2/s  PAL         1007     5 50
0 NEI2016v1_NONPT_PCA            $ROOT/NEI2016v1/v2020-07/$MM/NEI2016v1_0.1x0.1_2016$MM$DD_nonpt.nc          PCA           2016/1-12/1-31/$HH C xy  kg/m2/s  PCA         1007     5 50
0 NEI2016v1_NONPT_PCL            $ROOT/NEI2016v1/v2020-07/$MM/NEI2016v1_0.1x0.1_2016$MM$DD_nonpt.nc          PCL           2016/1-12/1-31/$HH C xy  kg/m2/s  PCL         1007     5 50
0 NEI2016v1_NONPT_PFE            $ROOT/NEI2016v1/v2020-07/$MM/NEI2016v1_0.1x0.1_2016$MM$DD_nonpt.nc          PFE           2016/1-12/1-31/$HH C xy  kg/m2/s  PFE         1007     5 50
0 NEI2016v1_NONPT_PH2O           $ROOT/NEI2016v1/v2020-07/$MM/NEI2016v1_0.1x0.1_2016$MM$DD_nonpt.nc          PH2O          2016/1-12/1-31/$HH C xy  kg/m2/s  PH2O        1007     5 50
0 NEI2016v1_NONPT_PK             $ROOT/NEI2016v1/v2020-07/$MM/NEI2016v1_0.1x0.1_2016$MM$DD_nonpt.nc          PK            2016/1-12/1-31/$HH C xy  kg/m2/s  PK          1007     5 50
0 NEI2016v1_NONPT_PMG            $ROOT/NEI2016v1/v2020-07/$MM/NEI2016v1_0.1x0.1_2016$MM$DD_nonpt.nc          PMG           2016/1-12/1-31/$HH C xy  kg/m2/s  PMG         1007     5 50
0 NEI2016v1_NONPT_PMN            $ROOT/NEI2016v1/v2020-07/$MM/NEI2016v1_0.1x0.1_2016$MM$DD_nonpt.nc          PMN           2016/1-12/1-31/$HH C xy  kg/m2/s  PMN         1007     5 50
0 NEI2016v1_NONPT_PMOTHR         $ROOT/NEI2016v1/v2020-07/$MM/NEI2016v1_0.1x0.1_2016$MM$DD_nonpt.nc          PMOTHR        2016/1-12/1-31/$HH C xy  kg/m2/s  PMOTHR      1007     5 50
0 NEI2016v1_NONPT_PNA            $ROOT/NEI2016v1/v2020-07/$MM/NEI2016v1_0.1x0.1_2016$MM$DD_nonpt.nc          PNA           2016/1-12/1-31/$HH C xy  kg/m2/s  PNA         1007     5 50
0 NEI2016v1_NONPT_PNCOM          $ROOT/NEI2016v1/v2020-07/$MM/NEI2016v1_0.1x0.1_2016$MM$DD_nonpt.nc          PNCOM         2016/1-12/1-31/$HH C xy  kg/m2/s  PNCOM       1007     5 50
0 NEI2016v1_NONPT_PNH4           $ROOT/NEI2016v1/v2020-07/$MM/NEI2016v1_0.1x0.1_2016$MM$DD_nonpt.nc          PNH4          2016/1-12/1-31/$HH C xy  kg/m2/s  PNH4        1007     5 50
0 NEI2016v1_NONPT_PNO3           $ROOT/NEI2016v1/v2020-07/$MM/NEI2016v1_0.1x0.1_2016$MM$DD_nonpt.nc          PNO3          2016/1-12/1-31/$HH C xy  kg/m2/s  PNO3        1007     5 50
0 NEI2016v1_NONPT_PTI            $ROOT/NEI2016v1/v2020-07/$MM/NEI2016v1_0.1x0.1_2016$MM$DD_nonpt.nc          PTI           2016/1-12/1-31/$HH C xy  kg/m2/s  PTI         1007     5 50
0 NEI2016v1_NONPT_PSI            $ROOT/NEI2016v1/v2020-07/$MM/NEI2016v1_0.1x0.1_2016$MM$DD_nonpt.nc          PSI           2016/1-12/1-31/$HH C xy  kg/m2/s  PSI         1007     5 50
0 NEI2016v1_NONPT_PMC            $ROOT/NEI2016v1/v2020-07/$MM/NEI2016v1_0.1x0.1_2016$MM$DD_nonpt.nc          PMC           2016/1-12/1-31/$HH C xy  kg/m2/s  PMC         1007     5 50
0 NEI2016v1_NONPT_PSO4           $ROOT/NEI2016v1/v2020-07/$MM/NEI2016v1_0.1x0.1_2016$MM$DD_nonpt.nc          PSO4          2016/1-12/1-31/$HH C xy  kg/m2/s  PSO4        1007     5 50

# SURFACE OTHAFDUSTADJ INVENTORY
0 NEI2016v1_OTHAFDUSTADJ_PEC            $ROOT/NEI2016v1/v2020-07/$MM/NEI2016v1_0.1x0.1_2016$MM$DD_othafdustadj.nc          PEC           2016/1-12/1-31/$HH C xy  kg/m2/s  PEC  1007     6 50
0 NEI2016v1_OTHAFDUSTADJ_POC            $ROOT/NEI2016v1/v2020-07/$MM/NEI2016v1_0.1x0.1_2016$MM$DD_othafdustadj.nc          POC           2016/1-12/1-31/$HH C xy  kg/m2/s  POC  1007     6 50
0 NEI2016v1_OTHAFDUSTADJ_PAL            $ROOT/NEI2016v1/v2020-07/$MM/NEI2016v1_0.1x0.1_2016$MM$DD_othafdustadj.nc          PAL           2016/1-12/1-31/$HH C xy  kg/m2/s  PAL  1007     6 50
0 NEI2016v1_OTHAFDUSTADJ_PCA            $ROOT/NEI2016v1/v2020-07/$MM/NEI2016v1_0.1x0.1_2016$MM$DD_othafdustadj.nc          PCA           2016/1-12/1-31/$HH C xy  kg/m2/s  PCA  1007     6 50
0 NEI2016v1_OTHAFDUSTADJ_PCL            $ROOT/NEI2016v1/v2020-07/$MM/NEI2016v1_0.1x0.1_2016$MM$DD_othafdustadj.nc          PCL           2016/1-12/1-31/$HH C xy  kg/m2/s  PCL  1007     6 50
0 NEI2016v1_OTHAFDUSTADJ_PFE            $ROOT/NEI2016v1/v2020-07/$MM/NEI2016v1_0.1x0.1_2016$MM$DD_othafdustadj.nc          PFE           2016/1-12/1-31/$HH C xy  kg/m2/s  PFE  1007     6 50
0 NEI2016v1_OTHAFDUSTADJ_PH2O           $ROOT/NEI2016v1/v2020-07/$MM/NEI2016v1_0.1x0.1_2016$MM$DD_othafdustadj.nc          PH2O          2016/1-12/1-31/$HH C xy  kg/m2/s  PH2O 1007     6 50
0 NEI2016v1_OTHAFDUSTADJ_PK             $ROOT/NEI2016v1/v2020-07/$MM/NEI2016v1_0.1x0.1_2016$MM$DD_othafdustadj.nc          PK            2016/1-12/1-31/$HH C xy  kg/m2/s  PK   1007     6 50
0 NEI2016v1_OTHAFDUSTADJ_PMG            $ROOT/NEI2016v1/v2020-07/$MM/NEI2016v1_0.1x0.1_2016$MM$DD_othafdustadj.nc          PMG           2016/1-12/1-31/$HH C xy  kg/m2/s  PMG  1007     6 50
0 NEI2016v1_OTHAFDUSTADJ_PMN            $ROOT/NEI2016v1/v2020-07/$MM/NEI2016v1_0.1x0.1_2016$MM$DD_othafdustadj.nc          PMN           2016/1-12/1-31/$HH C xy  kg/m2/s  PMN  1007     6 50
0 NEI2016v1_OTHAFDUSTADJ_PMOTHR         $ROOT/NEI2016v1/v2020-07/$MM/NEI2016v1_0.1x0.1_2016$MM$DD_othafdustadj.nc          PMOTHR        2016/1-12/1-31/$HH C xy  kg/m2/s  PMOTHR 1007     6 50
0 NEI2016v1_OTHAFDUSTADJ_PNA            $ROOT/NEI2016v1/v2020-07/$MM/NEI2016v1_0.1x0.1_2016$MM$DD_othafdustadj.nc          PNA           2016/1-12/1-31/$HH C xy  kg/m2/s  PNA    1007     6 50
0 NEI2016v1_OTHAFDUSTADJ_PNCOM          $ROOT/NEI2016v1/v2020-07/$MM/NEI2016v1_0.1x0.1_2016$MM$DD_othafdustadj.nc          PNCOM         2016/1-12/1-31/$HH C xy  kg/m2/s  PNCOM  1007     6 50
0 NEI2016v1_OTHAFDUSTADJ_PNH4           $ROOT/NEI2016v1/v2020-07/$MM/NEI2016v1_0.1x0.1_2016$MM$DD_othafdustadj.nc          PNH4          2016/1-12/1-31/$HH C xy  kg/m2/s  PNH4   1007     6 50
0 NEI2016v1_OTHAFDUSTADJ_PNO3           $ROOT/NEI2016v1/v2020-07/$MM/NEI2016v1_0.1x0.1_2016$MM$DD_othafdustadj.nc          PNO3          2016/1-12/1-31/$HH C xy  kg/m2/s  PNO3   1007     6 50
0 NEI2016v1_OTHAFDUSTADJ_PTI            $ROOT/NEI2016v1/v2020-07/$MM/NEI2016v1_0.1x0.1_2016$MM$DD_othafdustadj.nc          PTI           2016/1-12/1-31/$HH C xy  kg/m2/s  PTI    1007     6 50
0 NEI2016v1_OTHAFDUSTADJ_PSI            $ROOT/NEI2016v1/v2020-07/$MM/NEI2016v1_0.1x0.1_2016$MM$DD_othafdustadj.nc          PSI           2016/1-12/1-31/$HH C xy  kg/m2/s  PSI    1007     6 50
0 NEI2016v1_OTHAFDUSTADJ_PMC            $ROOT/NEI2016v1/v2020-07/$MM/NEI2016v1_0.1x0.1_2016$MM$DD_othafdustadj.nc          PMC           2016/1-12/1-31/$HH C xy  kg/m2/s  PMC    1007     6 50
0 NEI2016v1_OTHAFDUSTADJ_PSO4           $ROOT/NEI2016v1/v2020-07/$MM/NEI2016v1_0.1x0.1_2016$MM$DD_othafdustadj.nc          PSO4          2016/1-12/1-31/$HH C xy  kg/m2/s  PSO4   1007     6 50

# SURFACE OTHPTDUSTADJ INVENTORY
0 NEI2016v1_OTHPTDUSTADJ_PEC            $ROOT/NEI2016v1/v2020-07/$MM/NEI2016v1_0.1x0.1_2016$MM$DD_othptdustadj.nc          PEC           2016/1-12/1-31/$HH C xy  kg/m2/s  PEC    1007     7 50
0 NEI2016v1_OTHPTDUSTADJ_POC            $ROOT/NEI2016v1/v2020-07/$MM/NEI2016v1_0.1x0.1_2016$MM$DD_othptdustadj.nc          POC           2016/1-12/1-31/$HH C xy  kg/m2/s  POC    1007     7 50
0 NEI2016v1_OTHPTDUSTADJ_PAL            $ROOT/NEI2016v1/v2020-07/$MM/NEI2016v1_0.1x0.1_2016$MM$DD_othptdustadj.nc          PAL           2016/1-12/1-31/$HH C xy  kg/m2/s  PAL    1007     7 50
0 NEI2016v1_OTHPTDUSTADJ_PCA            $ROOT/NEI2016v1/v2020-07/$MM/NEI2016v1_0.1x0.1_2016$MM$DD_othptdustadj.nc          PCA           2016/1-12/1-31/$HH C xy  kg/m2/s  PCA    1007     7 50
0 NEI2016v1_OTHPTDUSTADJ_PCL            $ROOT/NEI2016v1/v2020-07/$MM/NEI2016v1_0.1x0.1_2016$MM$DD_othptdustadj.nc          PCL           2016/1-12/1-31/$HH C xy  kg/m2/s  PCL    1007     7 50
0 NEI2016v1_OTHPTDUSTADJ_PFE            $ROOT/NEI2016v1/v2020-07/$MM/NEI2016v1_0.1x0.1_2016$MM$DD_othptdustadj.nc          PFE           2016/1-12/1-31/$HH C xy  kg/m2/s  PFE    1007     7 50
0 NEI2016v1_OTHPTDUSTADJ_PH2O           $ROOT/NEI2016v1/v2020-07/$MM/NEI2016v1_0.1x0.1_2016$MM$DD_othptdustadj.nc          PH2O          2016/1-12/1-31/$HH C xy  kg/m2/s  PH2O   1007     7 50
0 NEI2016v1_OTHPTDUSTADJ_PK             $ROOT/NEI2016v1/v2020-07/$MM/NEI2016v1_0.1x0.1_2016$MM$DD_othptdustadj.nc          PK            2016/1-12/1-31/$HH C xy  kg/m2/s  PK     1007     7 50
0 NEI2016v1_OTHPTDUSTADJ_PMG            $ROOT/NEI2016v1/v2020-07/$MM/NEI2016v1_0.1x0.1_2016$MM$DD_othptdustadj.nc          PMG           2016/1-12/1-31/$HH C xy  kg/m2/s  PMG    1007     7 50
0 NEI2016v1_OTHPTDUSTADJ_PMN            $ROOT/NEI2016v1/v2020-07/$MM/NEI2016v1_0.1x0.1_2016$MM$DD_othptdustadj.nc          PMN           2016/1-12/1-31/$HH C xy  kg/m2/s  PMN    1007     7 50
0 NEI2016v1_OTHPTDUSTADJ_PMOTHR         $ROOT/NEI2016v1/v2020-07/$MM/NEI2016v1_0.1x0.1_2016$MM$DD_othptdustadj.nc          PMOTHR        2016/1-12/1-31/$HH C xy  kg/m2/s  PMOTHR 1007     7 50
0 NEI2016v1_OTHPTDUSTADJ_PNA            $ROOT/NEI2016v1/v2020-07/$MM/NEI2016v1_0.1x0.1_2016$MM$DD_othptdustadj.nc          PNA           2016/1-12/1-31/$HH C xy  kg/m2/s  PNA    1007     7 50
0 NEI2016v1_OTHPTDUSTADJ_PNCOM          $ROOT/NEI2016v1/v2020-07/$MM/NEI2016v1_0.1x0.1_2016$MM$DD_othptdustadj.nc          PNCOM         2016/1-12/1-31/$HH C xy  kg/m2/s  PNCOM  1007     7 50
0 NEI2016v1_OTHPTDUSTADJ_PNH4           $ROOT/NEI2016v1/v2020-07/$MM/NEI2016v1_0.1x0.1_2016$MM$DD_othptdustadj.nc          PNH4          2016/1-12/1-31/$HH C xy  kg/m2/s  PNH4   1007     7 50
0 NEI2016v1_OTHPTDUSTADJ_PNO3           $ROOT/NEI2016v1/v2020-07/$MM/NEI2016v1_0.1x0.1_2016$MM$DD_othptdustadj.nc          PNO3          2016/1-12/1-31/$HH C xy  kg/m2/s  PNO3   1007     7 50
0 NEI2016v1_OTHPTDUSTADJ_PTI            $ROOT/NEI2016v1/v2020-07/$MM/NEI2016v1_0.1x0.1_2016$MM$DD_othptdustadj.nc          PTI           2016/1-12/1-31/$HH C xy  kg/m2/s  PTI    1007     7 50
0 NEI2016v1_OTHPTDUSTADJ_PSI            $ROOT/NEI2016v1/v2020-07/$MM/NEI2016v1_0.1x0.1_2016$MM$DD_othptdustadj.nc          PSI           2016/1-12/1-31/$HH C xy  kg/m2/s  PSI    1007     7 50
0 NEI2016v1_OTHPTDUSTADJ_PMC            $ROOT/NEI2016v1/v2020-07/$MM/NEI2016v1_0.1x0.1_2016$MM$DD_othptdustadj.nc          PMC           2016/1-12/1-31/$HH C xy  kg/m2/s  PMC    1007     7 50
0 NEI2016v1_OTHPTDUSTADJ_PSO4           $ROOT/NEI2016v1/v2020-07/$MM/NEI2016v1_0.1x0.1_2016$MM$DD_othptdustadj.nc          PSO4          2016/1-12/1-31/$HH C xy  kg/m2/s  PSO4   1007     7 50

# SURFACE OTHAR INVENTORY
0 NEI2016v1_OTHAR_CO             $ROOT/NEI2016v1/v2020-07/$MM/NEI2016v1_0.1x0.1_2016$MM$DD_othar.nc          CO            2016/1-12/1-31/$HH C xy  kg/m2/s  CO           1007     8 50
0 NEI2016v1_OTHAR_SO2            $ROOT/NEI2016v1/v2020-07/$MM/NEI2016v1_0.1x0.1_2016$MM$DD_othar.nc          SO2           2016/1-12/1-31/$HH C xy  kg/m2/s  SO2          1007     8 50
0 NEI2016v1_OTHAR_NO             $ROOT/NEI2016v1/v2020-07/$MM/NEI2016v1_0.1x0.1_2016$MM$DD_othar.nc          NO            2016/1-12/1-31/$HH C xy  kg/m2/s  NOT          1007     8 50
0 NEI2016v1_OTHAR_NO2            $ROOT/NEI2016v1/v2020-07/$MM/NEI2016v1_0.1x0.1_2016$MM$DD_othar.nc          NO2           2016/1-12/1-31/$HH C xy  kg/m2/s  NO2          1007     8 50
0 NEI2016v1_OTHAR_HONO           $ROOT/NEI2016v1/v2020-07/$MM/NEI2016v1_0.1x0.1_2016$MM$DD_othar.nc          HONO          2016/1-12/1-31/$HH C xy  kg/m2/s  HONO         1007     8 50
0 NEI2016v1_OTHAR_SULF           $ROOT/NEI2016v1/v2020-07/$MM/NEI2016v1_0.1x0.1_2016$MM$DD_othar.nc          SULF          2016/1-12/1-31/$HH C xy  kg/m2/s  SULF         1007     8 50
0 NEI2016v1_OTHAR_NH3            $ROOT/NEI2016v1/v2020-07/$MM/NEI2016v1_0.1x0.1_2016$MM$DD_othar.nc          NH3           2016/1-12/1-31/$HH C xy  kg/m2/s  NH3          1007     8 50
0 NEI2016v1_OTHAR_NH3_FERT       $ROOT/NEI2016v1/v2020-07/$MM/NEI2016v1_0.1x0.1_2016$MM$DD_othar.nc          NH3_FERT      2016/1-12/1-31/$HH C xy  kg/m2/s  NH3_FERT     1007     8 50
0 NEI2016v1_OTHAR_CH4            $ROOT/NEI2016v1/v2020-07/$MM/NEI2016v1_0.1x0.1_2016$MM$DD_othar.nc          CH4           2016/1-12/1-31/$HH C xy  kg/m2/s  CH4          1007     8 50
0 NEI2016v1_OTHAR_ETHY           $ROOT/NEI2016v1/v2020-07/$MM/NEI2016v1_0.1x0.1_2016$MM$DD_othar.nc          ETHY          2016/1-12/1-31/$HH C xy  kgC/m2/s ETHY         1007     8 50
0 NEI2016v1_OTHAR_TERP           $ROOT/NEI2016v1/v2020-07/$MM/NEI2016v1_0.1x0.1_2016$MM$DD_othar.nc          TERP          2016/1-12/1-31/$HH C xy  kgC/m2/s TERP         1007     8 50
0 NEI2016v1_OTHAR_FORM           $ROOT/NEI2016v1/v2020-07/$MM/NEI2016v1_0.1x0.1_2016$MM$DD_othar.nc          FORM          2016/1-12/1-31/$HH C xy  kgC/m2/s FORM         1007     8 50
0 NEI2016v1_OTHAR_PAR            $ROOT/NEI2016v1/v2020-07/$MM/NEI2016v1_0.1x0.1_2016$MM$DD_othar.nc          PAR           2016/1-12/1-31/$HH C xy  kgC/m2/s PAR          1007     8 50
0 NEI2016v1_OTHAR_IOLE           $ROOT/NEI2016v1/v2020-07/$MM/NEI2016v1_0.1x0.1_2016$MM$DD_othar.nc          IOLE          2016/1-12/1-31/$HH C xy  kgC/m2/s IOLE         1007     8 50
0 NEI2016v1_OTHAR_OLE            $ROOT/NEI2016v1/v2020-07/$MM/NEI2016v1_0.1x0.1_2016$MM$DD_othar.nc          OLE           2016/1-12/1-31/$HH C xy  kgC/m2/s OLE          1007     8 50
0 NEI2016v1_OTHAR_ETH            $ROOT/NEI2016v1/v2020-07/$MM/NEI2016v1_0.1x0.1_2016$MM$DD_othar.nc          ETH           2016/1-12/1-31/$HH C xy  kgC/m2/s ETH          1007     8 50
0 NEI2016v1_OTHAR_ETHA           $ROOT/NEI2016v1/v2020-07/$MM/NEI2016v1_0.1x0.1_2016$MM$DD_othar.nc          ETHA          2016/1-12/1-31/$HH C xy  kgC/m2/s ETHA         1007     8 50
0 NEI2016v1_OTHAR_ETOH           $ROOT/NEI2016v1/v2020-07/$MM/NEI2016v1_0.1x0.1_2016$MM$DD_othar.nc          ETOH          2016/1-12/1-31/$HH C xy  kgC/m2/s ETOH         1007     8 50
0 NEI2016v1_OTHAR_MEOH           $ROOT/NEI2016v1/v2020-07/$MM/NEI2016v1_0.1x0.1_2016$MM$DD_othar.nc          MEOH          2016/1-12/1-31/$HH C xy  kgC/m2/s MEOH         1007     8 50
0 NEI2016v1_OTHAR_BENZ           $ROOT/NEI2016v1/v2020-07/$MM/NEI2016v1_0.1x0.1_2016$MM$DD_othar.nc          BENZ          2016/1-12/1-31/$HH C xy  kgC/m2/s BENZ         1007     8 50
0 NEI2016v1_OTHAR_TOL            $ROOT/NEI2016v1/v2020-07/$MM/NEI2016v1_0.1x0.1_2016$MM$DD_othar.nc          TOL           2016/1-12/1-31/$HH C xy  kgC/m2/s TOL          1007     8 50
0 NEI2016v1_OTHAR_XYLMN          $ROOT/NEI2016v1/v2020-07/$MM/NEI2016v1_0.1x0.1_2016$MM$DD_othar.nc          XYLMN         2016/1-12/1-31/$HH C xy  kgC/m2/s XYLMN        1007     8 50
0 NEI2016v1_OTHAR_NAPH           $ROOT/NEI2016v1/v2020-07/$MM/NEI2016v1_0.1x0.1_2016$MM$DD_othar.nc          NAPH          2016/1-12/1-31/$HH C xy  kgC/m2/s NAPH         1007     8 50
0 NEI2016v1_OTHAR_ALD2           $ROOT/NEI2016v1/v2020-07/$MM/NEI2016v1_0.1x0.1_2016$MM$DD_othar.nc          ALD2          2016/1-12/1-31/$HH C xy  kgC/m2/s ALD2         1007     8 50
0 NEI2016v1_OTHAR_ALDX           $ROOT/NEI2016v1/v2020-07/$MM/NEI2016v1_0.1x0.1_2016$MM$DD_othar.nc          ALDX          2016/1-12/1-31/$HH C xy  kgC/m2/s ALDX         1007     8 50
0 NEI2016v1_OTHAR_ISOP           $ROOT/NEI2016v1/v2020-07/$MM/NEI2016v1_0.1x0.1_2016$MM$DD_othar.nc          ISOP          2016/1-12/1-31/$HH C xy  kgC/m2/s ISOP         1007     8 50
0 NEI2016v1_OTHAR_PRPA           $ROOT/NEI2016v1/v2020-07/$MM/NEI2016v1_0.1x0.1_2016$MM$DD_othar.nc          PRPA          2016/1-12/1-31/$HH C xy  kgC/m2/s PRPA         1007     8 50
0 NEI2016v1_OTHAR_ACET           $ROOT/NEI2016v1/v2020-07/$MM/NEI2016v1_0.1x0.1_2016$MM$DD_othar.nc          ACET          2016/1-12/1-31/$HH C xy  kgC/m2/s ACET         1007     8 50
0 NEI2016v1_OTHAR_KET            $ROOT/NEI2016v1/v2020-07/$MM/NEI2016v1_0.1x0.1_2016$MM$DD_othar.nc          KET           2016/1-12/1-31/$HH C xy  kgC/m2/s KET          1007     8 50
0 NEI2016v1_OTHAR_ALD2_PRIMARY   $ROOT/NEI2016v1/v2020-07/$MM/NEI2016v1_0.1x0.1_2016$MM$DD_othar.nc          ALD2_PRIMARY  2016/1-12/1-31/$HH C xy  kgC/m2/s ALD2_PRIMARY 1007     8 50
0 NEI2016v1_OTHAR_FORM_PRIMARY   $ROOT/NEI2016v1/v2020-07/$MM/NEI2016v1_0.1x0.1_2016$MM$DD_othar.nc          FORM_PRIMARY  2016/1-12/1-31/$HH C xy  kgC/m2/s FORM_PRIMARY 1007     8 50
0 NEI2016v1_OTHAR_SOAALK         $ROOT/NEI2016v1/v2020-07/$MM/NEI2016v1_0.1x0.1_2016$MM$DD_othar.nc          SOAALK        2016/1-12/1-31/$HH C xy  kgC/m2/s SOAALK       1007     8 50
0 NEI2016v1_OTHAR_PEC            $ROOT/NEI2016v1/v2020-07/$MM/NEI2016v1_0.1x0.1_2016$MM$DD_othar.nc          PEC           2016/1-12/1-31/$HH C xy  kg/m2/s  PEC          1007     8 50
0 NEI2016v1_OTHAR_POC            $ROOT/NEI2016v1/v2020-07/$MM/NEI2016v1_0.1x0.1_2016$MM$DD_othar.nc          POC           2016/1-12/1-31/$HH C xy  kg/m2/s  POC          1007     8 50
0 NEI2016v1_OTHAR_PAL            $ROOT/NEI2016v1/v2020-07/$MM/NEI2016v1_0.1x0.1_2016$MM$DD_othar.nc          PAL           2016/1-12/1-31/$HH C xy  kg/m2/s  PAL          1007     8 50
0 NEI2016v1_OTHAR_PCA            $ROOT/NEI2016v1/v2020-07/$MM/NEI2016v1_0.1x0.1_2016$MM$DD_othar.nc          PCA           2016/1-12/1-31/$HH C xy  kg/m2/s  PCA          1007     8 50
0 NEI2016v1_OTHAR_PCL            $ROOT/NEI2016v1/v2020-07/$MM/NEI2016v1_0.1x0.1_2016$MM$DD_othar.nc          PCL           2016/1-12/1-31/$HH C xy  kg/m2/s  PCL          1007     8 50
0 NEI2016v1_OTHAR_PFE            $ROOT/NEI2016v1/v2020-07/$MM/NEI2016v1_0.1x0.1_2016$MM$DD_othar.nc          PFE           2016/1-12/1-31/$HH C xy  kg/m2/s  PFE          1007     8 50
0 NEI2016v1_OTHAR_PH2O           $ROOT/NEI2016v1/v2020-07/$MM/NEI2016v1_0.1x0.1_2016$MM$DD_othar.nc          PH2O          2016/1-12/1-31/$HH C xy  kg/m2/s  PH2O         1007     8 50
0 NEI2016v1_OTHAR_PK             $ROOT/NEI2016v1/v2020-07/$MM/NEI2016v1_0.1x0.1_2016$MM$DD_othar.nc          PK            2016/1-12/1-31/$HH C xy  kg/m2/s  PK           1007     8 50
0 NEI2016v1_OTHAR_PMG            $ROOT/NEI2016v1/v2020-07/$MM/NEI2016v1_0.1x0.1_2016$MM$DD_othar.nc          PMG           2016/1-12/1-31/$HH C xy  kg/m2/s  PMG          1007     8 50
0 NEI2016v1_OTHAR_PMN            $ROOT/NEI2016v1/v2020-07/$MM/NEI2016v1_0.1x0.1_2016$MM$DD_othar.nc          PMN           2016/1-12/1-31/$HH C xy  kg/m2/s  PMN          1007     8 50
0 NEI2016v1_OTHAR_PMOTHR         $ROOT/NEI2016v1/v2020-07/$MM/NEI2016v1_0.1x0.1_2016$MM$DD_othar.nc          PMOTHR        2016/1-12/1-31/$HH C xy  kg/m2/s  PMOTHR       1007     8 50
0 NEI2016v1_OTHAR_PNA            $ROOT/NEI2016v1/v2020-07/$MM/NEI2016v1_0.1x0.1_2016$MM$DD_othar.nc          PNA           2016/1-12/1-31/$HH C xy  kg/m2/s  PNA          1007     8 50
0 NEI2016v1_OTHAR_PNCOM          $ROOT/NEI2016v1/v2020-07/$MM/NEI2016v1_0.1x0.1_2016$MM$DD_othar.nc          PNCOM         2016/1-12/1-31/$HH C xy  kg/m2/s  PNCOM        1007     8 50
0 NEI2016v1_OTHAR_PNH4           $ROOT/NEI2016v1/v2020-07/$MM/NEI2016v1_0.1x0.1_2016$MM$DD_othar.nc          PNH4          2016/1-12/1-31/$HH C xy  kg/m2/s  PNH4         1007     8 50
0 NEI2016v1_OTHAR_PNO3           $ROOT/NEI2016v1/v2020-07/$MM/NEI2016v1_0.1x0.1_2016$MM$DD_othar.nc          PNO3          2016/1-12/1-31/$HH C xy  kg/m2/s  PNO3         1007     8 50
0 NEI2016v1_OTHAR_PTI            $ROOT/NEI2016v1/v2020-07/$MM/NEI2016v1_0.1x0.1_2016$MM$DD_othar.nc          PTI           2016/1-12/1-31/$HH C xy  kg/m2/s  PTI          1007     8 50
0 NEI2016v1_OTHAR_PSI            $ROOT/NEI2016v1/v2020-07/$MM/NEI2016v1_0.1x0.1_2016$MM$DD_othar.nc          PSI           2016/1-12/1-31/$HH C xy  kg/m2/s  PSI          1007     8 50
0 NEI2016v1_OTHAR_PMC            $ROOT/NEI2016v1/v2020-07/$MM/NEI2016v1_0.1x0.1_2016$MM$DD_othar.nc          PMC           2016/1-12/1-31/$HH C xy  kg/m2/s  PMC          1007     8 50
0 NEI2016v1_OTHAR_PSO4           $ROOT/NEI2016v1/v2020-07/$MM/NEI2016v1_0.1x0.1_2016$MM$DD_othar.nc          PSO4          2016/1-12/1-31/$HH C xy  kg/m2/s  PSO4         1007     8 50

# SURFACE RAIL INVENTORY
0 NEI2016v1_RAIL_CO             $ROOT/NEI2016v1/v2020-07/$MM/NEI2016v1_0.1x0.1_2016$MM$DD_rail.nc          CO            2016/1-12/1-31/$HH C xy  kg/m2/s  CO           1007     9 50
0 NEI2016v1_RAIL_SO2            $ROOT/NEI2016v1/v2020-07/$MM/NEI2016v1_0.1x0.1_2016$MM$DD_rail.nc          SO2           2016/1-12/1-31/$HH C xy  kg/m2/s  SO2          1007     9 50
0 NEI2016v1_RAIL_NO             $ROOT/NEI2016v1/v2020-07/$MM/NEI2016v1_0.1x0.1_2016$MM$DD_rail.nc          NO            2016/1-12/1-31/$HH C xy  kg/m2/s  NOT          1007     9 50
0 NEI2016v1_RAIL_NO2            $ROOT/NEI2016v1/v2020-07/$MM/NEI2016v1_0.1x0.1_2016$MM$DD_rail.nc          NO2           2016/1-12/1-31/$HH C xy  kg/m2/s  NO2          1007     9 50
0 NEI2016v1_RAIL_HONO           $ROOT/NEI2016v1/v2020-07/$MM/NEI2016v1_0.1x0.1_2016$MM$DD_rail.nc          HONO          2016/1-12/1-31/$HH C xy  kg/m2/s  HONO         1007     9 50
0 NEI2016v1_RAIL_SULF           $ROOT/NEI2016v1/v2020-07/$MM/NEI2016v1_0.1x0.1_2016$MM$DD_rail.nc          SULF          2016/1-12/1-31/$HH C xy  kg/m2/s  SULF         1007     9 50
0 NEI2016v1_RAIL_NH3            $ROOT/NEI2016v1/v2020-07/$MM/NEI2016v1_0.1x0.1_2016$MM$DD_rail.nc          NH3           2016/1-12/1-31/$HH C xy  kg/m2/s  NH3          1007     9 50
0 NEI2016v1_RAIL_NH3_FERT       $ROOT/NEI2016v1/v2020-07/$MM/NEI2016v1_0.1x0.1_2016$MM$DD_rail.nc          NH3_FERT      2016/1-12/1-31/$HH C xy  kg/m2/s  NH3_FERT     1007     9 50
0 NEI2016v1_RAIL_CH4            $ROOT/NEI2016v1/v2020-07/$MM/NEI2016v1_0.1x0.1_2016$MM$DD_rail.nc          CH4           2016/1-12/1-31/$HH C xy  kg/m2/s  CH4          1007     9 50
0 NEI2016v1_RAIL_ACROLEIN       $ROOT/NEI2016v1/v2020-07/$MM/NEI2016v1_0.1x0.1_2016$MM$DD_rail.nc          ACROLEIN      2016/1-12/1-31/$HH C xy  kgC/m2/s ACROLEIN     1007     9 50
0 NEI2016v1_RAIL_BUTADIENE13    $ROOT/NEI2016v1/v2020-07/$MM/NEI2016v1_0.1x0.1_2016$MM$DD_rail.nc          BUTADIENE13   2016/1-12/1-31/$HH C xy  kgC/m2/s BUTADIENE13  1007     9 50
0 NEI2016v1_RAIL_ETHY           $ROOT/NEI2016v1/v2020-07/$MM/NEI2016v1_0.1x0.1_2016$MM$DD_rail.nc          ETHY          2016/1-12/1-31/$HH C xy  kgC/m2/s ETHY         1007     9 50
0 NEI2016v1_RAIL_TERP           $ROOT/NEI2016v1/v2020-07/$MM/NEI2016v1_0.1x0.1_2016$MM$DD_rail.nc          TERP          2016/1-12/1-31/$HH C xy  kgC/m2/s TERP         1007     9 50
0 NEI2016v1_RAIL_FORM           $ROOT/NEI2016v1/v2020-07/$MM/NEI2016v1_0.1x0.1_2016$MM$DD_rail.nc          FORM          2016/1-12/1-31/$HH C xy  kgC/m2/s FORM         1007     9 50
0 NEI2016v1_RAIL_PAR            $ROOT/NEI2016v1/v2020-07/$MM/NEI2016v1_0.1x0.1_2016$MM$DD_rail.nc          PAR           2016/1-12/1-31/$HH C xy  kgC/m2/s PAR          1007     9 50
0 NEI2016v1_RAIL_IOLE           $ROOT/NEI2016v1/v2020-07/$MM/NEI2016v1_0.1x0.1_2016$MM$DD_rail.nc          IOLE          2016/1-12/1-31/$HH C xy  kgC/m2/s IOLE         1007     9 50
0 NEI2016v1_RAIL_OLE            $ROOT/NEI2016v1/v2020-07/$MM/NEI2016v1_0.1x0.1_2016$MM$DD_rail.nc          OLE           2016/1-12/1-31/$HH C xy  kgC/m2/s OLE          1007     9 50
0 NEI2016v1_RAIL_ETH            $ROOT/NEI2016v1/v2020-07/$MM/NEI2016v1_0.1x0.1_2016$MM$DD_rail.nc          ETH           2016/1-12/1-31/$HH C xy  kgC/m2/s ETH          1007     9 50
0 NEI2016v1_RAIL_ETHA           $ROOT/NEI2016v1/v2020-07/$MM/NEI2016v1_0.1x0.1_2016$MM$DD_rail.nc          ETHA          2016/1-12/1-31/$HH C xy  kgC/m2/s ETHA         1007     9 50
0 NEI2016v1_RAIL_ETOH           $ROOT/NEI2016v1/v2020-07/$MM/NEI2016v1_0.1x0.1_2016$MM$DD_rail.nc          ETOH          2016/1-12/1-31/$HH C xy  kgC/m2/s ETOH         1007     9 50
0 NEI2016v1_RAIL_MEOH           $ROOT/NEI2016v1/v2020-07/$MM/NEI2016v1_0.1x0.1_2016$MM$DD_rail.nc          MEOH          2016/1-12/1-31/$HH C xy  kgC/m2/s MEOH         1007     9 50
0 NEI2016v1_RAIL_BENZ           $ROOT/NEI2016v1/v2020-07/$MM/NEI2016v1_0.1x0.1_2016$MM$DD_rail.nc          BENZ          2016/1-12/1-31/$HH C xy  kgC/m2/s BENZ         1007     9 50
0 NEI2016v1_RAIL_TOL            $ROOT/NEI2016v1/v2020-07/$MM/NEI2016v1_0.1x0.1_2016$MM$DD_rail.nc          TOL           2016/1-12/1-31/$HH C xy  kgC/m2/s TOL          1007     9 50
0 NEI2016v1_RAIL_XYLMN          $ROOT/NEI2016v1/v2020-07/$MM/NEI2016v1_0.1x0.1_2016$MM$DD_rail.nc          XYLMN         2016/1-12/1-31/$HH C xy  kgC/m2/s XYLMN        1007     9 50
0 NEI2016v1_RAIL_NAPH           $ROOT/NEI2016v1/v2020-07/$MM/NEI2016v1_0.1x0.1_2016$MM$DD_rail.nc          NAPH          2016/1-12/1-31/$HH C xy  kgC/m2/s NAPH         1007     9 50
0 NEI2016v1_RAIL_ALD2           $ROOT/NEI2016v1/v2020-07/$MM/NEI2016v1_0.1x0.1_2016$MM$DD_rail.nc          ALD2          2016/1-12/1-31/$HH C xy  kgC/m2/s ALD2         1007     9 50
0 NEI2016v1_RAIL_ALDX           $ROOT/NEI2016v1/v2020-07/$MM/NEI2016v1_0.1x0.1_2016$MM$DD_rail.nc          ALDX          2016/1-12/1-31/$HH C xy  kgC/m2/s ALDX         1007     9 50
0 NEI2016v1_RAIL_ISOP           $ROOT/NEI2016v1/v2020-07/$MM/NEI2016v1_0.1x0.1_2016$MM$DD_rail.nc          ISOP          2016/1-12/1-31/$HH C xy  kgC/m2/s ISOP         1007     9 50
0 NEI2016v1_RAIL_PRPA           $ROOT/NEI2016v1/v2020-07/$MM/NEI2016v1_0.1x0.1_2016$MM$DD_rail.nc          PRPA          2016/1-12/1-31/$HH C xy  kgC/m2/s PRPA         1007     9 50
0 NEI2016v1_RAIL_ACET           $ROOT/NEI2016v1/v2020-07/$MM/NEI2016v1_0.1x0.1_2016$MM$DD_rail.nc          ACET          2016/1-12/1-31/$HH C xy  kgC/m2/s ACET         1007     9 50
0 NEI2016v1_RAIL_KET            $ROOT/NEI2016v1/v2020-07/$MM/NEI2016v1_0.1x0.1_2016$MM$DD_rail.nc          KET           2016/1-12/1-31/$HH C xy  kgC/m2/s KET          1007     9 50
0 NEI2016v1_RAIL_ALD2_PRIMARY   $ROOT/NEI2016v1/v2020-07/$MM/NEI2016v1_0.1x0.1_2016$MM$DD_rail.nc          ALD2_PRIMARY  2016/1-12/1-31/$HH C xy  kgC/m2/s ALD2_PRIMARY 1007     9 50
0 NEI2016v1_RAIL_FORM_PRIMARY   $ROOT/NEI2016v1/v2020-07/$MM/NEI2016v1_0.1x0.1_2016$MM$DD_rail.nc          FORM_PRIMARY  2016/1-12/1-31/$HH C xy  kgC/m2/s FORM_PRIMARY 1007     9 50
0 NEI2016v1_RAIL_SOAALK         $ROOT/NEI2016v1/v2020-07/$MM/NEI2016v1_0.1x0.1_2016$MM$DD_rail.nc          SOAALK        2016/1-12/1-31/$HH C xy  kgC/m2/s SOAALK       1007     9 50
0 NEI2016v1_RAIL_PEC            $ROOT/NEI2016v1/v2020-07/$MM/NEI2016v1_0.1x0.1_2016$MM$DD_rail.nc          PEC           2016/1-12/1-31/$HH C xy  kg/m2/s  PEC          1007     9 50
0 NEI2016v1_RAIL_POC            $ROOT/NEI2016v1/v2020-07/$MM/NEI2016v1_0.1x0.1_2016$MM$DD_rail.nc          POC           2016/1-12/1-31/$HH C xy  kg/m2/s  POC          1007     9 50
0 NEI2016v1_RAIL_PAL            $ROOT/NEI2016v1/v2020-07/$MM/NEI2016v1_0.1x0.1_2016$MM$DD_rail.nc          PAL           2016/1-12/1-31/$HH C xy  kg/m2/s  PAL          1007     9 50
0 NEI2016v1_RAIL_PCA            $ROOT/NEI2016v1/v2020-07/$MM/NEI2016v1_0.1x0.1_2016$MM$DD_rail.nc          PCA           2016/1-12/1-31/$HH C xy  kg/m2/s  PCA          1007     9 50
0 NEI2016v1_RAIL_PCL            $ROOT/NEI2016v1/v2020-07/$MM/NEI2016v1_0.1x0.1_2016$MM$DD_rail.nc          PCL           2016/1-12/1-31/$HH C xy  kg/m2/s  PCL          1007     9 50
0 NEI2016v1_RAIL_PFE            $ROOT/NEI2016v1/v2020-07/$MM/NEI2016v1_0.1x0.1_2016$MM$DD_rail.nc          PFE           2016/1-12/1-31/$HH C xy  kg/m2/s  PFE          1007     9 50
0 NEI2016v1_RAIL_PH2O           $ROOT/NEI2016v1/v2020-07/$MM/NEI2016v1_0.1x0.1_2016$MM$DD_rail.nc          PH2O          2016/1-12/1-31/$HH C xy  kg/m2/s  PH2O         1007     9 50
0 NEI2016v1_RAIL_PK             $ROOT/NEI2016v1/v2020-07/$MM/NEI2016v1_0.1x0.1_2016$MM$DD_rail.nc          PK            2016/1-12/1-31/$HH C xy  kg/m2/s  PK           1007     9 50
0 NEI2016v1_RAIL_PMG            $ROOT/NEI2016v1/v2020-07/$MM/NEI2016v1_0.1x0.1_2016$MM$DD_rail.nc          PMG           2016/1-12/1-31/$HH C xy  kg/m2/s  PMG          1007     9 50
0 NEI2016v1_RAIL_PMN            $ROOT/NEI2016v1/v2020-07/$MM/NEI2016v1_0.1x0.1_2016$MM$DD_rail.nc          PMN           2016/1-12/1-31/$HH C xy  kg/m2/s  PMN          1007     9 50
0 NEI2016v1_RAIL_PMOTHR         $ROOT/NEI2016v1/v2020-07/$MM/NEI2016v1_0.1x0.1_2016$MM$DD_rail.nc          PMOTHR        2016/1-12/1-31/$HH C xy  kg/m2/s  PMOTHR       1007     9 50
0 NEI2016v1_RAIL_PNA            $ROOT/NEI2016v1/v2020-07/$MM/NEI2016v1_0.1x0.1_2016$MM$DD_rail.nc          PNA           2016/1-12/1-31/$HH C xy  kg/m2/s  PNA          1007     9 50
0 NEI2016v1_RAIL_PNCOM          $ROOT/NEI2016v1/v2020-07/$MM/NEI2016v1_0.1x0.1_2016$MM$DD_rail.nc          PNCOM         2016/1-12/1-31/$HH C xy  kg/m2/s  PNCOM        1007     9 50
0 NEI2016v1_RAIL_PNH4           $ROOT/NEI2016v1/v2020-07/$MM/NEI2016v1_0.1x0.1_2016$MM$DD_rail.nc          PNH4          2016/1-12/1-31/$HH C xy  kg/m2/s  PNH4         1007     9 50
0 NEI2016v1_RAIL_PNO3           $ROOT/NEI2016v1/v2020-07/$MM/NEI2016v1_0.1x0.1_2016$MM$DD_rail.nc          PNO3          2016/1-12/1-31/$HH C xy  kg/m2/s  PNO3         1007     9 50
0 NEI2016v1_RAIL_PTI            $ROOT/NEI2016v1/v2020-07/$MM/NEI2016v1_0.1x0.1_2016$MM$DD_rail.nc          PTI           2016/1-12/1-31/$HH C xy  kg/m2/s  PTI          1007     9 50
0 NEI2016v1_RAIL_PSI            $ROOT/NEI2016v1/v2020-07/$MM/NEI2016v1_0.1x0.1_2016$MM$DD_rail.nc          PSI           2016/1-12/1-31/$HH C xy  kg/m2/s  PSI          1007     9 50
0 NEI2016v1_RAIL_PMC            $ROOT/NEI2016v1/v2020-07/$MM/NEI2016v1_0.1x0.1_2016$MM$DD_rail.nc          PMC           2016/1-12/1-31/$HH C xy  kg/m2/s  PMC          1007     9 50
0 NEI2016v1_RAIL_PSO4           $ROOT/NEI2016v1/v2020-07/$MM/NEI2016v1_0.1x0.1_2016$MM$DD_rail.nc          PSO4          2016/1-12/1-31/$HH C xy  kg/m2/s  PSO4         1007     9 50

# SURFACE PTOILGAS INVENTORY (OTHER NON-MAJOR SOURCES)
0 NEI2016v1_PTOILGAS_CO             $ROOT/NEI2016v1/v2020-07/$MM/NEI2016v1_0.1x0.1_2016$MM$DD_ptoilgas.nc          CO            2016/1-12/1-31/$HH C xy  kg/m2/s  CO           1007     10 50
0 NEI2016v1_PTOILGAS_SO2            $ROOT/NEI2016v1/v2020-07/$MM/NEI2016v1_0.1x0.1_2016$MM$DD_ptoilgas.nc          SO2           2016/1-12/1-31/$HH C xy  kg/m2/s  SO2          1007     10 50
0 NEI2016v1_PTOILGAS_NO             $ROOT/NEI2016v1/v2020-07/$MM/NEI2016v1_0.1x0.1_2016$MM$DD_ptoilgas.nc          NO            2016/1-12/1-31/$HH C xy  kg/m2/s  NOT          1007     10 50
0 NEI2016v1_PTOILGAS_NO2            $ROOT/NEI2016v1/v2020-07/$MM/NEI2016v1_0.1x0.1_2016$MM$DD_ptoilgas.nc          NO2           2016/1-12/1-31/$HH C xy  kg/m2/s  NO2          1007     10 50
0 NEI2016v1_PTOILGAS_HCL            $ROOT/NEI2016v1/v2020-07/$MM/NEI2016v1_0.1x0.1_2016$MM$DD_ptoilgas.nc          HCL           2016/1-12/1-31/$HH C xy  kg/m2/s  HCL          1007     10 50
0 NEI2016v1_PTOILGAS_CL2            $ROOT/NEI2016v1/v2020-07/$MM/NEI2016v1_0.1x0.1_2016$MM$DD_ptoilgas.nc          CL2           2016/1-12/1-31/$HH C xy  kg/m2/s  CL2          1007     10 50
0 NEI2016v1_PTOILGAS_HONO           $ROOT/NEI2016v1/v2020-07/$MM/NEI2016v1_0.1x0.1_2016$MM$DD_ptoilgas.nc          HONO          2016/1-12/1-31/$HH C xy  kg/m2/s  HONO         1007     10 50
0 NEI2016v1_PTOILGAS_SULF           $ROOT/NEI2016v1/v2020-07/$MM/NEI2016v1_0.1x0.1_2016$MM$DD_ptoilgas.nc          SULF          2016/1-12/1-31/$HH C xy  kg/m2/s  SULF         1007     10 50
0 NEI2016v1_PTOILGAS_NH3            $ROOT/NEI2016v1/v2020-07/$MM/NEI2016v1_0.1x0.1_2016$MM$DD_ptoilgas.nc          NH3           2016/1-12/1-31/$HH C xy  kg/m2/s  NH3          1007     10 50
0 NEI2016v1_PTOILGAS_NH3_FERT       $ROOT/NEI2016v1/v2020-07/$MM/NEI2016v1_0.1x0.1_2016$MM$DD_ptoilgas.nc          NH3_FERT      2016/1-12/1-31/$HH C xy  kg/m2/s  NH3_FERT     1007     10 50
0 NEI2016v1_PTOILGAS_CH4            $ROOT/NEI2016v1/v2020-07/$MM/NEI2016v1_0.1x0.1_2016$MM$DD_ptoilgas.nc          CH4           2016/1-12/1-31/$HH C xy  kg/m2/s  CH4          1007     10 50
0 NEI2016v1_PTOILGAS_ACROLEIN       $ROOT/NEI2016v1/v2020-07/$MM/NEI2016v1_0.1x0.1_2016$MM$DD_ptoilgas.nc          ACROLEIN      2016/1-12/1-31/$HH C xy  kgC/m2/s ACROLEIN     1007     10 50
0 NEI2016v1_PTOILGAS_BUTADIENE13    $ROOT/NEI2016v1/v2020-07/$MM/NEI2016v1_0.1x0.1_2016$MM$DD_ptoilgas.nc          BUTADIENE13   2016/1-12/1-31/$HH C xy  kgC/m2/s BUTADIENE13  1007     10 50
0 NEI2016v1_PTOILGAS_ETHY           $ROOT/NEI2016v1/v2020-07/$MM/NEI2016v1_0.1x0.1_2016$MM$DD_ptoilgas.nc          ETHY          2016/1-12/1-31/$HH C xy  kgC/m2/s ETHY         1007     10 50
0 NEI2016v1_PTOILGAS_TERP           $ROOT/NEI2016v1/v2020-07/$MM/NEI2016v1_0.1x0.1_2016$MM$DD_ptoilgas.nc          TERP          2016/1-12/1-31/$HH C xy  kgC/m2/s TERP         1007     10 50
0 NEI2016v1_PTOILGAS_FORM           $ROOT/NEI2016v1/v2020-07/$MM/NEI2016v1_0.1x0.1_2016$MM$DD_ptoilgas.nc          FORM          2016/1-12/1-31/$HH C xy  kgC/m2/s FORM         1007     10 50
0 NEI2016v1_PTOILGAS_PAR            $ROOT/NEI2016v1/v2020-07/$MM/NEI2016v1_0.1x0.1_2016$MM$DD_ptoilgas.nc          PAR           2016/1-12/1-31/$HH C xy  kgC/m2/s PAR          1007     10 50
0 NEI2016v1_PTOILGAS_IOLE           $ROOT/NEI2016v1/v2020-07/$MM/NEI2016v1_0.1x0.1_2016$MM$DD_ptoilgas.nc          IOLE          2016/1-12/1-31/$HH C xy  kgC/m2/s IOLE        1007     10 50
0 NEI2016v1_PTOILGAS_OLE            $ROOT/NEI2016v1/v2020-07/$MM/NEI2016v1_0.1x0.1_2016$MM$DD_ptoilgas.nc          OLE           2016/1-12/1-31/$HH C xy  kgC/m2/s OLE         1007     10 50
0 NEI2016v1_PTOILGAS_ETH            $ROOT/NEI2016v1/v2020-07/$MM/NEI2016v1_0.1x0.1_2016$MM$DD_ptoilgas.nc          ETH          2016/1-12/1-31/$HH C xy  kgC/m2/s ETH          1007     10 50
0 NEI2016v1_PTOILGAS_ETHA           $ROOT/NEI2016v1/v2020-07/$MM/NEI2016v1_0.1x0.1_2016$MM$DD_ptoilgas.nc          ETHA          2016/1-12/1-31/$HH C xy  kgC/m2/s ETHA        1007     10 50
0 NEI2016v1_PTOILGAS_ETOH           $ROOT/NEI2016v1/v2020-07/$MM/NEI2016v1_0.1x0.1_2016$MM$DD_ptoilgas.nc          ETOH          2016/1-12/1-31/$HH C xy  kgC/m2/s ETOH        1007     10 50
0 NEI2016v1_PTOILGAS_MEOH           $ROOT/NEI2016v1/v2020-07/$MM/NEI2016v1_0.1x0.1_2016$MM$DD_ptoilgas.nc          MEOH          2016/1-12/1-31/$HH C xy  kgC/m2/s MEOH        1007     10 50
0 NEI2016v1_PTOILGAS_BENZ           $ROOT/NEI2016v1/v2020-07/$MM/NEI2016v1_0.1x0.1_2016$MM$DD_ptoilgas.nc          BENZ          2016/1-12/1-31/$HH C xy  kgC/m2/s BENZ        1007     10 50
0 NEI2016v1_PTOILGAS_TOL            $ROOT/NEI2016v1/v2020-07/$MM/NEI2016v1_0.1x0.1_2016$MM$DD_ptoilgas.nc          TOL           2016/1-12/1-31/$HH C xy  kgC/m2/s TOL         1007     10 50
0 NEI2016v1_PTOILGAS_XYLMN          $ROOT/NEI2016v1/v2020-07/$MM/NEI2016v1_0.1x0.1_2016$MM$DD_ptoilgas.nc          XYLMN         2016/1-12/1-31/$HH C xy  kgC/m2/s XYLMN       1007     10 50
0 NEI2016v1_PTOILGAS_NAPH           $ROOT/NEI2016v1/v2020-07/$MM/NEI2016v1_0.1x0.1_2016$MM$DD_ptoilgas.nc          NAPH          2016/1-12/1-31/$HH C xy  kgC/m2/s NAPH        1007     10 50
0 NEI2016v1_PTOILGAS_ALD2           $ROOT/NEI2016v1/v2020-07/$MM/NEI2016v1_0.1x0.1_2016$MM$DD_ptoilgas.nc          ALD2          2016/1-12/1-31/$HH C xy  kgC/m2/s ALD2        1007     10 50
0 NEI2016v1_PTOILGAS_ALDX           $ROOT/NEI2016v1/v2020-07/$MM/NEI2016v1_0.1x0.1_2016$MM$DD_ptoilgas.nc          ALDX          2016/1-12/1-31/$HH C xy  kgC/m2/s ALDX        1007     10 50
[...]
0 NEI2016v1_PT_C3MARINE_ETOH           $ROOT/NEI2016v1/v2020-07/$MM/NEI2016v1_0.1x0.1_2016$MM$DD_cmv_c3_12.nc          ETOH          2016/1-12/1-31/$HH C xyz  kgC/m2/s ETOH        1007     21 50
0 NEI2016v1_PT_C3MARINE_MEOH           $ROOT/NEI2016v1/v2020-07/$MM/NEI2016v1_0.1x0.1_2016$MM$DD_cmv_c3_12.nc          MEOH          2016/1-12/1-31/$HH C xyz  kgC/m2/s MEOH        1007     21 50
0 NEI2016v1_PT_C3MARINE_BENZ           $ROOT/NEI2016v1/v2020-07/$MM/NEI2016v1_0.1x0.1_2016$MM$DD_cmv_c3_12.nc          BENZ          2016/1-12/1-31/$HH C xyz  kgC/m2/s BENZ        1007     21 50
0 NEI2016v1_PT_C3MARINE_TOL            $ROOT/NEI2016v1/v2020-07/$MM/NEI2016v1_0.1x0.1_2016$MM$DD_cmv_c3_12.nc          TOL           2016/1-12/1-31/$HH C xyz  kgC/m2/s TOL         1007     21 50
0 NEI2016v1_PT_C3MARINE_XYLMN          $ROOT/NEI2016v1/v2020-07/$MM/NEI2016v1_0.1x0.1_2016$MM$DD_cmv_c3_12.nc          XYLMN         2016/1-12/1-31/$HH C xyz  kgC/m2/s XYLMN       1007     21 50
0 NEI2016v1_PT_C3MARINE_NAPH           $ROOT/NEI2016v1/v2020-07/$MM/NEI2016v1_0.1x0.1_2016$MM$DD_cmv_c3_12.nc          NAPH          2016/1-12/1-31/$HH C xyz  kgC/m2/s NAPH        1007     21 50
0 NEI2016v1_PT_C3MARINE_ALD2           $ROOT/NEI2016v1/v2020-07/$MM/NEI2016v1_0.1x0.1_2016$MM$DD_cmv_c3_12.nc          ALD2          2016/1-12/1-31/$HH C xyz  kgC/m2/s ALD2        1007     21 50
0 NEI2016v1_PT_C3MARINE_ALDX           $ROOT/NEI2016v1/v2020-07/$MM/NEI2016v1_0.1x0.1_2016$MM$DD_cmv_c3_12.nc          ALDX          2016/1-12/1-31/$HH C xyz  kgC/m2/s ALDX        1007     21 50
0 NEI2016v1_PT_C3MARINE_ISOP           $ROOT/NEI2016v1/v2020-07/$MM/NEI2016v1_0.1x0.1_2016$MM$DD_cmv_c3_12.nc          ISOP          2016/1-12/1-31/$HH C xyz  kgC/m2/s ISOP        1007     21 50
0 NEI2016v1_PT_C3MARINE_PRPA           $ROOT/NEI2016v1/v2020-07/$MM/NEI2016v1_0.1x0.1_2016$MM$DD_cmv_c3_12.nc          PRPA          2016/1-12/1-31/$HH C xyz  kgC/m2/s PRPA        1007     21 50
0 NEI2016v1_PT_C3MARINE_ACET           $ROOT/NEI2016v1/v2020-07/$MM/NEI2016v1_0.1x0.1_2016$MM$DD_cmv_c3_12.nc          ACET          2016/1-12/1-31/$HH C xyz  kgC/m2/s ACET        1007     21 50
0 NEI2016v1_PT_C3MARINE_KET            $ROOT/NEI2016v1/v2020-07/$MM/NEI2016v1_0.1x0.1_2016$MM$DD_cmv_c3_12.nc          KET           2016/1-12/1-31/$HH C xyz  kgC/m2/s KET         1007     21 50
0 NEI2016v1_PT_C3MARINE_ALD2_PRIMARY   $ROOT/NEI2016v1/v2020-07/$MM/NEI2016v1_0.1x0.1_2016$MM$DD_cmv_c3_12.nc          ALD2_PRIMARY  2016/1-12/1-31/$HH C xyz  kgC/m2/s ALD2_PRIMARY 1007    21 50
0 NEI2016v1_PT_C3MARINE_FORM_PRIMARY   $ROOT/NEI2016v1/v2020-07/$MM/NEI2016v1_0.1x0.1_2016$MM$DD_cmv_c3_12.nc          FORM_PRIMARY  2016/1-12/1-31/$HH C xyz  kgC/m2/s FORM_PRIMARY 1007    21 50
0 NEI2016v1_PT_C3MARINE_SOAALK         $ROOT/NEI2016v1/v2020-07/$MM/NEI2016v1_0.1x0.1_2016$MM$DD_cmv_c3_12.nc          SOAALK        2016/1-12/1-31/$HH C xyz  kgC/m2/s SOAALK      1007     21 50
0 NEI2016v1_PT_C3MARINE_PEC            $ROOT/NEI2016v1/v2020-07/$MM/NEI2016v1_0.1x0.1_2016$MM$DD_cmv_c3_12.nc          PEC           2016/1-12/1-31/$HH C xyz  kg/m2/s  PEC         1007     21 50
0 NEI2016v1_PT_C3MARINE_POC            $ROOT/NEI2016v1/v2020-07/$MM/NEI2016v1_0.1x0.1_2016$MM$DD_cmv_c3_12.nc          POC           2016/1-12/1-31/$HH C xyz  kg/m2/s  POC         1007     21 50
0 NEI2016v1_PT_C3MARINE_PAL            $ROOT/NEI2016v1/v2020-07/$MM/NEI2016v1_0.1x0.1_2016$MM$DD_cmv_c3_12.nc          PAL           2016/1-12/1-31/$HH C xyz  kg/m2/s  PAL         1007     21 50
0 NEI2016v1_PT_C3MARINE_PCA            $ROOT/NEI2016v1/v2020-07/$MM/NEI2016v1_0.1x0.1_2016$MM$DD_cmv_c3_12.nc          PCA           2016/1-12/1-31/$HH C xyz  kg/m2/s  PCA         1007     21 50
0 NEI2016v1_PT_C3MARINE_PCL            $ROOT/NEI2016v1/v2020-07/$MM/NEI2016v1_0.1x0.1_2016$MM$DD_cmv_c3_12.nc          PCL           2016/1-12/1-31/$HH C xyz  kg/m2/s  PCL         1007     21 50
0 NEI2016v1_PT_C3MARINE_PFE            $ROOT/NEI2016v1/v2020-07/$MM/NEI2016v1_0.1x0.1_2016$MM$DD_cmv_c3_12.nc          PFE           2016/1-12/1-31/$HH C xyz  kg/m2/s  PFE         1007     21 50
0 NEI2016v1_PT_C3MARINE_PH2O           $ROOT/NEI2016v1/v2020-07/$MM/NEI2016v1_0.1x0.1_2016$MM$DD_cmv_c3_12.nc          PH2O          2016/1-12/1-31/$HH C xyz  kg/m2/s  PH2O        1007     21 50
0 NEI2016v1_PT_C3MARINE_PK             $ROOT/NEI2016v1/v2020-07/$MM/NEI2016v1_0.1x0.1_2016$MM$DD_cmv_c3_12.nc          PK            2016/1-12/1-31/$HH C xyz  kg/m2/s  PK          1007     21 50
0 NEI2016v1_PT_C3MARINE_PMG            $ROOT/NEI2016v1/v2020-07/$MM/NEI2016v1_0.1x0.1_2016$MM$DD_cmv_c3_12.nc          PMG           2016/1-12/1-31/$HH C xyz  kg/m2/s  PMG         1007     21 50
0 NEI2016v1_PT_C3MARINE_PMN            $ROOT/NEI2016v1/v2020-07/$MM/NEI2016v1_0.1x0.1_2016$MM$DD_cmv_c3_12.nc          PMN           2016/1-12/1-31/$HH C xyz  kg/m2/s  PMN         1007     21 50
0 NEI2016v1_PT_C3MARINE_PMOTHR         $ROOT/NEI2016v1/v2020-07/$MM/NEI2016v1_0.1x0.1_2016$MM$DD_cmv_c3_12.nc          PMOTHR        2016/1-12/1-31/$HH C xyz  kg/m2/s  PMOTHR      1007     21 50
0 NEI2016v1_PT_C3MARINE_PNA            $ROOT/NEI2016v1/v2020-07/$MM/NEI2016v1_0.1x0.1_2016$MM$DD_cmv_c3_12.nc          PNA           2016/1-12/1-31/$HH C xyz  kg/m2/s  PNA         1007     21 50
0 NEI2016v1_PT_C3MARINE_PNCOM          $ROOT/NEI2016v1/v2020-07/$MM/NEI2016v1_0.1x0.1_2016$MM$DD_cmv_c3_12.nc          PNCOM         2016/1-12/1-31/$HH C xyz  kg/m2/s  PNCOM       1007     21 50
0 NEI2016v1_PT_C3MARINE_PNH4           $ROOT/NEI2016v1/v2020-07/$MM/NEI2016v1_0.1x0.1_2016$MM$DD_cmv_c3_12.nc          PNH4          2016/1-12/1-31/$HH C xyz  kg/m2/s  PNH4        1007     21 50
0 NEI2016v1_PT_C3MARINE_PNO3           $ROOT/NEI2016v1/v2020-07/$MM/NEI2016v1_0.1x0.1_2016$MM$DD_cmv_c3_12.nc          PNO3          2016/1-12/1-31/$HH C xyz  kg/m2/s  PNO3        1007     21 50
0 NEI2016v1_PT_C3MARINE_PTI            $ROOT/NEI2016v1/v2020-07/$MM/NEI2016v1_0.1x0.1_2016$MM$DD_cmv_c3_12.nc          PTI           2016/1-12/1-31/$HH C xyz  kg/m2/s  PTI          1007    21 50
0 NEI2016v1_PT_C3MARINE_PSI            $ROOT/NEI2016v1/v2020-07/$MM/NEI2016v1_0.1x0.1_2016$MM$DD_cmv_c3_12.nc          PSI           2016/1-12/1-31/$HH C xyz  kg/m2/s  PSI          1007    21 50
0 NEI2016v1_PT_C3MARINE_PMC            $ROOT/NEI2016v1/v2020-07/$MM/NEI2016v1_0.1x0.1_2016$MM$DD_cmv_c3_12.nc          PMC           2016/1-12/1-31/$HH C xyz  kg/m2/s  PMC          1007    21 50
0 NEI2016v1_PT_C3MARINE_PSO4           $ROOT/NEI2016v1/v2020-07/$MM/NEI2016v1_0.1x0.1_2016$MM$DD_cmv_c3_12.nc          PSO4          2016/1-12/1-31/$HH C xyz  kg/m2/s  PSO4         1007    21 50

0 NEI2016v1_PT_C12MARINE_CO             $ROOT/NEI2016v1/v2020-07/$MM/NEI2016v1_0.1x0.1_2016$MM$DD_cmv_c1c2_12.nc          CO            2016/1-12/1-31/$HH C xyz  kg/m2/s  CO        1007     22 50
0 NEI2016v1_PT_C12MARINE_SO2            $ROOT/NEI2016v1/v2020-07/$MM/NEI2016v1_0.1x0.1_2016$MM$DD_cmv_c1c2_12.nc          SO2           2016/1-12/1-31/$HH C xyz  kg/m2/s  SO2       1007     22 50
0 NEI2016v1_PT_C12MARINE_NO             $ROOT/NEI2016v1/v2020-07/$MM/NEI2016v1_0.1x0.1_2016$MM$DD_cmv_c1c2_12.nc          NO            2016/1-12/1-31/$HH C xyz  kg/m2/s  NOT       1007     22 50
0 NEI2016v1_PT_C12MARINE_NO2            $ROOT/NEI2016v1/v2020-07/$MM/NEI2016v1_0.1x0.1_2016$MM$DD_cmv_c1c2_12.nc          NO2           2016/1-12/1-31/$HH C xyz  kg/m2/s  NO2       1007     22 50
0 NEI2016v1_PT_C12MARINE_HONO           $ROOT/NEI2016v1/v2020-07/$MM/NEI2016v1_0.1x0.1_2016$MM$DD_cmv_c1c2_12.nc          HONO          2016/1-12/1-31/$HH C xyz  kg/m2/s  HONO      1007     22 50
0 NEI2016v1_PT_C12MARINE_SULF           $ROOT/NEI2016v1/v2020-07/$MM/NEI2016v1_0.1x0.1_2016$MM$DD_cmv_c1c2_12.nc          SULF          2016/1-12/1-31/$HH C xyz  kg/m2/s  SULF      1007     22 50
0 NEI2016v1_PT_C12MARINE_NH3            $ROOT/NEI2016v1/v2020-07/$MM/NEI2016v1_0.1x0.1_2016$MM$DD_cmv_c1c2_12.nc          NH3           2016/1-12/1-31/$HH C xyz  kg/m2/s  NH3       1007     22 50
0 NEI2016v1_PT_C12MARINE_NH3_FERT       $ROOT/NEI2016v1/v2020-07/$MM/NEI2016v1_0.1x0.1_2016$MM$DD_cmv_c1c2_12.nc          NH3_FERT      2016/1-12/1-31/$HH C xyz  kg/m2/s  NH3_FERT  1007     22 50
0 NEI2016v1_PT_C12MARINE_CH4            $ROOT/NEI2016v1/v2020-07/$MM/NEI2016v1_0.1x0.1_2016$MM$DD_cmv_c1c2_12.nc          CH4           2016/1-12/1-31/$HH C xyz  kg/m2/s  CH4       1007     22 50
0 NEI2016v1_PT_C12MARINE_ETHY           $ROOT/NEI2016v1/v2020-07/$MM/NEI2016v1_0.1x0.1_2016$MM$DD_cmv_c1c2_12.nc          ETHY          2016/1-12/1-31/$HH C xyz  kgC/m2/s ETHY      1007     22 50
0 NEI2016v1_PT_C12MARINE_TERP           $ROOT/NEI2016v1/v2020-07/$MM/NEI2016v1_0.1x0.1_2016$MM$DD_cmv_c1c2_12.nc          TERP          2016/1-12/1-31/$HH C xyz  kgC/m2/s TERP      1007     22 50
0 NEI2016v1_PT_C12MARINE_FORM           $ROOT/NEI2016v1/v2020-07/$MM/NEI2016v1_0.1x0.1_2016$MM$DD_cmv_c1c2_12.nc          FORM          2016/1-12/1-31/$HH C xyz  kgC/m2/s FORM      1007     22 50
0 NEI2016v1_PT_C12MARINE_PAR            $ROOT/NEI2016v1/v2020-07/$MM/NEI2016v1_0.1x0.1_2016$MM$DD_cmv_c1c2_12.nc          PAR           2016/1-12/1-31/$HH C xyz  kgC/m2/s PAR       1007     22 50
0 NEI2016v1_PT_C12MARINE_IOLE           $ROOT/NEI2016v1/v2020-07/$MM/NEI2016v1_0.1x0.1_2016$MM$DD_cmv_c1c2_12.nc          IOLE          2016/1-12/1-31/$HH C xyz  kgC/m2/s IOLE        1007     22 50
0 NEI2016v1_PT_C12MARINE_OLE            $ROOT/NEI2016v1/v2020-07/$MM/NEI2016v1_0.1x0.1_2016$MM$DD_cmv_c1c2_12.nc          OLE           2016/1-12/1-31/$HH C xyz  kgC/m2/s OLE         1007     22 50
0 NEI2016v1_PT_C12MARINE_ETH            $ROOT/NEI2016v1/v2020-07/$MM/NEI2016v1_0.1x0.1_2016$MM$DD_cmv_c1c2_12.nc          ETH           2016/1-12/1-31/$HH C xyz  kgC/m2/s ETH         1007     22 50
0 NEI2016v1_PT_C12MARINE_ETHA           $ROOT/NEI2016v1/v2020-07/$MM/NEI2016v1_0.1x0.1_2016$MM$DD_cmv_c1c2_12.nc          ETHA          2016/1-12/1-31/$HH C xyz  kgC/m2/s ETHA        1007     22 50
0 NEI2016v1_PT_C12MARINE_ETOH           $ROOT/NEI2016v1/v2020-07/$MM/NEI2016v1_0.1x0.1_2016$MM$DD_cmv_c1c2_12.nc          ETOH          2016/1-12/1-31/$HH C xyz  kgC/m2/s ETOH        1007     22 50
0 NEI2016v1_PT_C12MARINE_MEOH           $ROOT/NEI2016v1/v2020-07/$MM/NEI2016v1_0.1x0.1_2016$MM$DD_cmv_c1c2_12.nc          MEOH          2016/1-12/1-31/$HH C xyz  kgC/m2/s MEOH        1007     22 50
0 NEI2016v1_PT_C12MARINE_BENZ           $ROOT/NEI2016v1/v2020-07/$MM/NEI2016v1_0.1x0.1_2016$MM$DD_cmv_c1c2_12.nc          BENZ          2016/1-12/1-31/$HH C xyz  kgC/m2/s BENZ        1007     22 50
0 NEI2016v1_PT_C12MARINE_TOL            $ROOT/NEI2016v1/v2020-07/$MM/NEI2016v1_0.1x0.1_2016$MM$DD_cmv_c1c2_12.nc          TOL           2016/1-12/1-31/$HH C xyz  kgC/m2/s TOL         1007     22 50
0 NEI2016v1_PT_C12MARINE_XYLMN          $ROOT/NEI2016v1/v2020-07/$MM/NEI2016v1_0.1x0.1_2016$MM$DD_cmv_c1c2_12.nc          XYLMN         2016/1-12/1-31/$HH C xyz  kgC/m2/s XYLMN       1007     22 50
0 NEI2016v1_PT_C12MARINE_NAPH           $ROOT/NEI2016v1/v2020-07/$MM/NEI2016v1_0.1x0.1_2016$MM$DD_cmv_c1c2_12.nc          NAPH          2016/1-12/1-31/$HH C xyz  kgC/m2/s NAPH        1007     22 50
0 NEI2016v1_PT_C12MARINE_ALD2           $ROOT/NEI2016v1/v2020-07/$MM/NEI2016v1_0.1x0.1_2016$MM$DD_cmv_c1c2_12.nc          ALD2          2016/1-12/1-31/$HH C xyz  kgC/m2/s ALD2        1007     22 50
0 NEI2016v1_PT_C12MARINE_ALDX           $ROOT/NEI2016v1/v2020-07/$MM/NEI2016v1_0.1x0.1_2016$MM$DD_cmv_c1c2_12.nc          ALDX          2016/1-12/1-31/$HH C xyz  kgC/m2/s ALDX        1007     22 50
0 NEI2016v1_PT_C12MARINE_ISOP           $ROOT/NEI2016v1/v2020-07/$MM/NEI2016v1_0.1x0.1_2016$MM$DD_cmv_c1c2_12.nc          ISOP          2016/1-12/1-31/$HH C xyz  kgC/m2/s ISOP        1007     22 50
0 NEI2016v1_PT_C12MARINE_PRPA           $ROOT/NEI2016v1/v2020-07/$MM/NEI2016v1_0.1x0.1_2016$MM$DD_cmv_c1c2_12.nc          PRPA          2016/1-12/1-31/$HH C xyz  kgC/m2/s PRPA        1007     22 50
0 NEI2016v1_PT_C12MARINE_ACET           $ROOT/NEI2016v1/v2020-07/$MM/NEI2016v1_0.1x0.1_2016$MM$DD_cmv_c1c2_12.nc          ACET          2016/1-12/1-31/$HH C xyz  kgC/m2/s ACET        1007     22 50
0 NEI2016v1_PT_C12MARINE_KET            $ROOT/NEI2016v1/v2020-07/$MM/NEI2016v1_0.1x0.1_2016$MM$DD_cmv_c1c2_12.nc          KET           2016/1-12/1-31/$HH C xyz  kgC/m2/s KET         1007     22 50
0 NEI2016v1_PT_C12MARINE_ALD2_PRIMARY   $ROOT/NEI2016v1/v2020-07/$MM/NEI2016v1_0.1x0.1_2016$MM$DD_cmv_c1c2_12.nc          ALD2_PRIMARY  2016/1-12/1-31/$HH C xyz  kgC/m2/s ALD2_PRIMARY 1007    22 50
0 NEI2016v1_PT_C12MARINE_FORM_PRIMARY   $ROOT/NEI2016v1/v2020-07/$MM/NEI2016v1_0.1x0.1_2016$MM$DD_cmv_c1c2_12.nc          FORM_PRIMARY  2016/1-12/1-31/$HH C xyz  kgC/m2/s FORM_PRIMARY 1007    22 50
0 NEI2016v1_PT_C12MARINE_SOAALK         $ROOT/NEI2016v1/v2020-07/$MM/NEI2016v1_0.1x0.1_2016$MM$DD_cmv_c1c2_12.nc          SOAALK        2016/1-12/1-31/$HH C xyz  kgC/m2/s SOAALK      1007     22 50
0 NEI2016v1_PT_C12MARINE_PEC            $ROOT/NEI2016v1/v2020-07/$MM/NEI2016v1_0.1x0.1_2016$MM$DD_cmv_c1c2_12.nc          PEC           2016/1-12/1-31/$HH C xyz  kg/m2/s  PEC         1007     22 50
0 NEI2016v1_PT_C12MARINE_POC            $ROOT/NEI2016v1/v2020-07/$MM/NEI2016v1_0.1x0.1_2016$MM$DD_cmv_c1c2_12.nc          POC           2016/1-12/1-31/$HH C xyz  kg/m2/s  POC         1007     22 50
0 NEI2016v1_PT_C12MARINE_PAL            $ROOT/NEI2016v1/v2020-07/$MM/NEI2016v1_0.1x0.1_2016$MM$DD_cmv_c1c2_12.nc          PAL           2016/1-12/1-31/$HH C xyz  kg/m2/s  PAL         1007     22 50
0 NEI2016v1_PT_C12MARINE_PCA            $ROOT/NEI2016v1/v2020-07/$MM/NEI2016v1_0.1x0.1_2016$MM$DD_cmv_c1c2_12.nc          PCA           2016/1-12/1-31/$HH C xyz  kg/m2/s  PCA         1007     22 50
0 NEI2016v1_PT_C12MARINE_PCL            $ROOT/NEI2016v1/v2020-07/$MM/NEI2016v1_0.1x0.1_2016$MM$DD_cmv_c1c2_12.nc          PCL           2016/1-12/1-31/$HH C xyz  kg/m2/s  PCL         1007     22 50
0 NEI2016v1_PT_C12MARINE_PFE            $ROOT/NEI2016v1/v2020-07/$MM/NEI2016v1_0.1x0.1_2016$MM$DD_cmv_c1c2_12.nc          PFE           2016/1-12/1-31/$HH C xyz  kg/m2/s  PFE         1007     22 50
0 NEI2016v1_PT_C12MARINE_PH2O           $ROOT/NEI2016v1/v2020-07/$MM/NEI2016v1_0.1x0.1_2016$MM$DD_cmv_c1c2_12.nc          PH2O          2016/1-12/1-31/$HH C xyz  kg/m2/s  PH2O        1007     22 50
0 NEI2016v1_PT_C12MARINE_PK             $ROOT/NEI2016v1/v2020-07/$MM/NEI2016v1_0.1x0.1_2016$MM$DD_cmv_c1c2_12.nc          PK            2016/1-12/1-31/$HH C xyz  kg/m2/s  PK          1007     22 50
0 NEI2016v1_PT_C12MARINE_PMG            $ROOT/NEI2016v1/v2020-07/$MM/NEI2016v1_0.1x0.1_2016$MM$DD_cmv_c1c2_12.nc          PMG           2016/1-12/1-31/$HH C xyz  kg/m2/s  PMG         1007     22 50
0 NEI2016v1_PT_C12MARINE_PMN            $ROOT/NEI2016v1/v2020-07/$MM/NEI2016v1_0.1x0.1_2016$MM$DD_cmv_c1c2_12.nc          PMN           2016/1-12/1-31/$HH C xyz  kg/m2/s  PMN         1007     22 50
0 NEI2016v1_PT_C12MARINE_PMOTHR         $ROOT/NEI2016v1/v2020-07/$MM/NEI2016v1_0.1x0.1_2016$MM$DD_cmv_c1c2_12.nc          PMOTHR        2016/1-12/1-31/$HH C xyz  kg/m2/s  PMOTHR      1007     22 50
0 NEI2016v1_PT_C12MARINE_PNA            $ROOT/NEI2016v1/v2020-07/$MM/NEI2016v1_0.1x0.1_2016$MM$DD_cmv_c1c2_12.nc          PNA           2016/1-12/1-31/$HH C xyz  kg/m2/s  PNA         1007     22 50
0 NEI2016v1_PT_C12MARINE_PNCOM          $ROOT/NEI2016v1/v2020-07/$MM/NEI2016v1_0.1x0.1_2016$MM$DD_cmv_c1c2_12.nc          PNCOM         2016/1-12/1-31/$HH C xyz  kg/m2/s  PNCOM       1007     22 50
0 NEI2016v1_PT_C12MARINE_PNH4           $ROOT/NEI2016v1/v2020-07/$MM/NEI2016v1_0.1x0.1_2016$MM$DD_cmv_c1c2_12.nc          PNH4          2016/1-12/1-31/$HH C xyz  kg/m2/s  PNH4        1007     22 50
0 NEI2016v1_PT_C12MARINE_PNO3           $ROOT/NEI2016v1/v2020-07/$MM/NEI2016v1_0.1x0.1_2016$MM$DD_cmv_c1c2_12.nc          PNO3          2016/1-12/1-31/$HH C xyz  kg/m2/s  PNO3        1007     22 50
0 NEI2016v1_PT_C12MARINE_PTI            $ROOT/NEI2016v1/v2020-07/$MM/NEI2016v1_0.1x0.1_2016$MM$DD_cmv_c1c2_12.nc          PTI           2016/1-12/1-31/$HH C xyz  kg/m2/s  PTI          1007    22 50
0 NEI2016v1_PT_C12MARINE_PSI            $ROOT/NEI2016v1/v2020-07/$MM/NEI2016v1_0.1x0.1_2016$MM$DD_cmv_c1c2_12.nc          PSI           2016/1-12/1-31/$HH C xyz  kg/m2/s  PSI          1007    22 50
0 NEI2016v1_PT_C12MARINE_PMC            $ROOT/NEI2016v1/v2020-07/$MM/NEI2016v1_0.1x0.1_2016$MM$DD_cmv_c1c2_12.nc          PMC           2016/1-12/1-31/$HH C xyz  kg/m2/s  PMC          1007    22 50
0 NEI2016v1_PT_C12MARINE_PSO4           $ROOT/NEI2016v1/v2020-07/$MM/NEI2016v1_0.1x0.1_2016$MM$DD_cmv_c1c2_12.nc          PSO4          2016/1-12/1-31/$HH C xyz  kg/m2/s  PSO4         1007    22 50
)))NEI2016v1_SHIP

)))SHIP

###############################################################################
### NON-EMISSIONS DATA (subsection of BASE EMISSIONS SECTION)
###
### Non-emissions data. The following fields are read through HEMCO but do 
### not contain emissions data. The extension number is set to wildcard 
### character denoting that these fields will not be considered for emission 
### calculation. A given entry is only read if the assigned species name is 
### an HEMCO species.
###############################################################################

#==============================================================================
# --- Time zones (offset to UTC) ---
#==============================================================================
* TIMEZONES $ROOT/TIMEZONES/v2015-02/timezones_1x1.nc UTC_OFFSET 2000/1/1/0 C xy count * - 1 1

### END SECTION BASE EMISSIONS ###

###############################################################################
### BEGIN SECTION SCALE FACTORS 
###############################################################################

# ScalID Name sourceFile sourceVar sourceTime C/R/E SrcDim SrcUnit Oper

#==============================================================================
# --- NEI 2016 scale factors (not currently used - P.C. Campbell) ---
#==============================================================================
#251 NEI2016v1_NO_YRSCALE  1.0               - 2016/1/1/0 C xy 1 1
#252 NEI2016v1_CO_YRSCALE  1.0               - 2016/1/1/0 C xy 1 1
#253 NEI2016v1_NH3_YRSCALE 1.0               - 2016/1/1/0 C xy 1 1
#254 NEI2016v1_VOC_YRSCALE 1.0               - 2016/1/1/0 C xy 1 1
#255 NEI2016v1_SO2_YRSCALE 1.0               - 2016/1/1/0 C xy 1 1
#256 NEI2016v1_BC_YRSCALE  1.0               - 2016/1/1/0 C xy 1 1
#257 NEI2016v1_OC_YRSCALE  1.0               - 2016/1/1/0 C xy 1 1
#260 NEI2016v1_PAR2ACET    0.06              - -          - xy 1 1
#261 NEI2016v1_PAR2C3H8    0.03              - -          - xy 1 1
#262 NEI2016v1_PAR2MEK     0.02              - -               - xy 1 1
#263 NEI2016v1_PAR2ALK4    0.87              - -               - xy 1 1
#264 NEI2016v1_OLE2PRPE    0.5               - -               - xy 1 1
#265 NEI2016v1_BC2BCPI     0.2               - -               - xy 1 1
#266 NEI2016v1_BC2BCPO     0.8               - -               - xy 1 1
#267 NEI2016v1_OC2OCPI     0.5               - -               - xy 1 1
#268 NEI2016v1_OC2OCPO     0.5               - -               - xy 1 1

### END SECTION SCALE FACTORS ###

###############################################################################
### BEGIN SECTION MASKS 
###############################################################################

# ScalID Name sourceFile sourceVar sourceTime C/R/E SrcDim SrcUnit Oper Lon1/Lat1/Lon2/Lat2

#==============================================================================
# Country/region masks
#==============================================================================
1007 USA_MASK    $ROOT/MASKS/v2014-07/usa.can.mex.mask.nei2005.geos.1x1.nc     MASK     2000/1/1/0 C xy unitless 1 -165/10/-40/90
### END SECTION MASKS ###

### END OF HEMCO INPUT FILE ###
#EOC
