#------------------------------------------------------------------------------
#                  Harvard-NASA Emissions Component (HEMCO)                   !
#------------------------------------------------------------------------------
#BOP
#
# !MODULE: HEMCO_Config.rc
#
# !DESCRIPTION: Contains configuration information for HEMCO. Define the
#  emissions inventories and corresponding file paths here. Entire 
#  configuration files can be inserted into this configuration file with
#  an '>>>include' statement, e.g. '>>>include HEMCO\_Config\_test.rc' 
#  The settings of include-files will be ignored.
#\\
#\\
# !REMARKS:
#  The following tokens will be replaced:
#  (1) ROOT    : Filepath to HEMCO root directory
#  (2) CFDIR   : Filepath to directory of this configuration file. 
#  (3) MET     : Met field type (from G-C compilation command)
#  (4) GRID    : Horizontal grid type (from G-C compilation command)
#  (5) SIM     : Simulation type (from G-C compilation command)
#  (6) NEST    : Nested-grid type (CH, EU, NA, SE)
#  (7) LNOX    : String for OTD/LIS lightning NOx files:
#                (a) For GEOS-5 this is either "geos5.1.0" or "geos5.2.0".  
#                (b) For other met fields, this is the same as MET.
#  (8) LEVRED  : String w/ the # of levels in the reduced GEOS-Chem grid
#                as used in some filenames (e.g. "23L", "30L", "47L")
#  (9) LEVFULL : String w/ the # of levels in the full GEOS-Chem grid
#                as used in some filenames (e.g. "55L", "72L")
# 
# !REVISION HISTORY: 
#  17 Apr 2014 - R. Yantosca - Initial version
#  02 Jul 2014 - R. Yantosca - Now use a 1 x 1 file for DMS seawater
#  02 Jul 2014 - R. Yantosca - Now added LNOX token
#  28 Jul 2014 - R. Yantosca - Now added "Unit tolerance" setting
#  12 Aug 2014 - R. Yantosca - Now added FINN files
#  18 Aug 2014 - R. Yantosca - Use proper NO2 to NO conversion for AEIC
#  18 Aug 2014 - R. Yantosca - Don't use diurnal factors for biofuel C2H6 
#  29 Aug 2014 - R. Yantosca - Apply GEIA_TOD_FOSSIL scale factor to NEI2005
#  04 Sep 2014 - R. Yantosca - Make sure to turn on MEGAN SOA extension
#  07 Oct 2014 - R. Yantosca - Now use HEMCO tokens $ROOT, $MET, $RES
#  16 Oct 2014 - R. Yantosca - Remove scale factor 39 from LIANG_CH2Br2
#  16 Oct 2014 - R. Yantosca - Now point to new CAC_NH3.geos.1x1.nc file
#  20 Oct 2014 - R. Yantosca - Now read data from GFED3/v2014-10
#  03 Nov 2014 - R. Yantosca - Now use proper scale factors for CAC NO, CO SO2
#  12 Nov 2014 - R. Yantosca - Now emit BC and OC into hydrophilic tracers
#                              BCPI & OCPI.  Apply scale factors as needed
#                              to get hydrophobic tracers BCPO, OCPO.  
#  25 Nov 2014 - R. Yantosca - For Fullchem simulations: turned off MEGAN_SOA
#  05 Jan 2015 - R. Yantosca - Add GMI stratospheric Bry data
#  12 Jan 2015 - R. Yantosca - Now move strat Bry data to base emissions
#  20 Jan 2015 - M. Sulprizio- Update OTD-LIS factors through October 2014
#  20 Jan 2015 - M. Sulprizio- Update EMEP emissions for 2008-2010
#  05 Feb 2015 - M. Sulprizio- Update to EDGAR v4.2 emissions
#  16 Feb 2015 - C. Keller   - (a) Added data 'collections' (brackets).
#                              (b) Moved section extension switches at the
#                                  beginning.
#                              (c) Removed section extension data. These fields
#                                  are now listed in section base emissions.
#                              (d) Fields can now cover multiple categories.
#  19 Feb 2015 - R. Yantosca - Read EDGAR_BENZ from EDGAR/v2015-02/VOCv2
#  19 Feb 2015 - R. Yantosca - Read EDGAR_TODNOX from EDGAR/v2015-02/NO
#  25 Feb 2015 - M. Sulprizio- Update MEGAN2.1 emissions according to Guenther
#                              et al. (2012)
#  02 Mar 2015 - R. Yantosca - Add RCP and eruptive/degassing emissions info
#  04 Mar 2015 - R. Yantosca - Add UV albedo to the NON-EMISSIONS data section
#  11 Mar 2015 - M. Sulprizio- Add MIX Asian anthropogenic emissions and
#                              HTAP global anthropogenic emissions
#  11 Mar 2015 - C. Keller   - Added 'negative' bracket, e.g. data within a
#                              bracket leading by '--' is only considered if 
#                              this collection name is disabled.
#  13 Mar 2015 - C. Keller   - Added option to include other configuration 
#                              files by listing them as '>>>include CF_Name'.
#                              Added token '$CFDIR'. 
#  16 Mar 2015 - M. Sulprizio- Add mask file for MIX Asia region
#  16 Mar 2015 - M. Sulprizio- Now read variables for PARANOX and MEGAN from
#                              the HEMCO restart file
#  16 Mar 2015 - M. Sulprizio- Add GFED4 entries from Christoph Keller
#  16 Mar 2015 - R. Yantosca - Add TOMS/SBUV O3 columns
#  17 Mar 2015 - M. Sulprizio- Add NEI2016Beta entries from Christoph Keller
#  18 Mar 2015 - M. Sulprizio- Now use updated 2016 NEI2016Beta annual scale
#                              factors from Katie Travis
#  24 Mar 2015 - M. Sulprizio- Reorder NEI2016Beta files so that we read all species
#                              for each sector before closing each netCDF file
#  26 Mar 2015 - M. Sulprizio- Add entry for STATE_PSC from Christoph Keller
#  27 Mar 2015 - M. Sulprizio- Revert to EMEP emissions in EMEP/v2014-07/
#  27 Mar 2015 - C. Keller   - Warnings are now 0-3
#  31 Mar 2015 - M. Sulprizio- Now use EMEP file from Aaron van Donkelaar with
#                              updated emissions for 2008-2012
#  08 Apr 2015 - R. Yantosca - Set units of STATE_PSC to "count"
#  17 Apr 2015 - M. Sulprizio- Now read corrected AEIC file in AEIC/v2015-01/
#  21 Apr 2015 - R. Yantosca - Now can use extension names as switches
#  21 Apr 2015 - R. Yantosca - Now make section endings more visible
#  13 May 2015 - R. Yantosca - Fixed path of bromocarb scale factors
#  19 May 2015 - R. Yantosca - ICOADS_SHIP names now use "generic", not "gen"  
#  19 May 2015 - R. Yantosca - Add a note to only pick one biomass option 
#  19 May 2015 - R. Yantosca - Now use tokens for VERBOSE, WARNINGS            
#  20 May 2015 - M. Sulprizio- Change HTAP category from 1 to 1/2 since it
#                              includes anthro+biofuel emissions
#  20 May 2015 - R. Yantosca - Updated name of HEMCO restart file
#  21 May 2015 - R. Yantosca - Now use correct filenames for FINNv1
#  26 May 2015 - R. Yantosca - Remove entries for PARANOX suncos variables
#  26 May 2015 - M. Sulprizio- Add QFED2 entries from Christoph Keller and
#                              QFED2 diurnal scale factors from Katie Travis
#  05 Jun 2015 - R. Yantosca - Updated for the official GFED4 release data
#  16 Jun 2015 - M. Sulprizio- Add logical switch for HEMCO restart file
#  16 Jun 2015 - R. Yantosca - Change units of UV albedo to "percent"
#EOP
#------------------------------------------------------------------------------
#   Input HEMCO Configuration File for NEI2016 created by Patrick C. Campbell
#   Patrick.C.Campbell@noaa.gov
#------------------------------------------------------------------------------
#BOC
###############################################################################
### BEGIN SECTION SETTINGS
###############################################################################

ROOT                        : /data/aqf3/patrickc/models/hemco_data_download
GridFile                    : HEMCO_sa_Grid.rc
SpecFile                    : HEMCO_sa_Spec.rc
TimeFile                    : HEMCO_sa_Time.rc
DiagnFile                   : HEMCO_sa_Diagn.rc
#DiagnPrefix                 : output/HEMCO_sa.diagnostics.CONUS.00.surface_all_nei2016beta
DiagnPrefix                 : output/HEMCO_sa.diagnostics.CONUS.01.surface_merged_nei2016beta
#DiagnPrefix                 : output/HEMCO_sa.diagnostics.global.01.surface_merged_nei2016beta
#DiagnPrefix                 : output/HEMCO_sa.diagnostics.CONUS.02.surface_all_and_rwc_nei2016beta
#DiagnPrefix                 : output/HEMCO_sa.diagnostics.CONUS.03.surface_merged_and_rwc_nei2016beta
#DiagnPrefix                 : output/HEMCO_sa.diagnostics.CONUS.04.surface_merged_and_pt_nei2016beta
DiagnFreq                   : Hourly 
Logfile                     : HEMCO.log
Unit tolerance              : 2
Negative values             : 1
Verbose                     : 3
Warnings                    : 1
Mask fractions              : true
MET                         : geosfp 
RES                         : 4x5
PBL dry deposition          : False
SINTOK                      : 0.5
Cap time shift              : true
#

### END SECTION SETTINGS ###

###############################################################################
### BEGIN SECTION EXTENSION SWITCHES
###############################################################################
###
### This section lists all emission extensions available to HEMCO and whether 
### they shall be used or not. Extension 'base' must have extension number 
### zero, all other extension numbers can be freely chosen. Data fields in 
### section 'base emissions' will only be read if the corresponding extension 
### (identified by ExtNr) is enabled. Similarly, fields grouped into data 
### collections ('(((CollectionName', ')))CollectionName') are only considered
### if the corresponding data collection is enabled in this section. Data
### listed within a disabled extension are always ignored, even if they are
### grouped in an enabled collection (e.g. GFED-4 data will never be considered
### if the GFED extension is disabled, even if the GFED4 option is set to true).
###
### It is possible to define collections that are only evaluated if a
### collection name is *not* enabled. This is achieved by leading the
### collection name with '.not.', e.g. '(((.not.FINN_daily' ...
### '))).not.FINN_daily' for FINN monthly data (only used if daily data is
### not being used). 
###
### The ExtNr provided in this section must match with the ExtNr assigned to
### the data listed in the base emissions sections. Otherwise, the listed 
### files won't be read!
###
### NOTES:
### --> You can only select one biomass burning option (GFED, QFED, FINN).
###
### --> BOND_BIOMASS must be set to false if GFED, QFED, or FINN is enabled.
###
### --> The biomass burning POA scale factor is the same as for the biofuel 
###     and anthro sources. 
###
### --> The NAP scale factor is determined as in the original simulation:
###     Obtain NAP emissions using scale factor from Hays 2002 ES&T 
###     (0.0253 g NAP/kg DM) and Andreae and Merlet 2001 GBC (92 g CO/kg DM)
###############################################################################
# ExtNr ExtName           on/off  Species
0       Base              : on    *
    --> HEMCO_RESTART     :       true
    --> AEIC              :       false
    --> BIOFUEL           :       false
    --> BOND              :       false
    --> BRAVO             :       false
    --> CAC               :       false
    --> C2H6              :       false
    --> EDGAR             :       false
    --> HTAP              :       false
    --> EMEP              :       false 
    --> GEIA              :       false
    --> LIANG_BROMOCARB   :       false
    --> NEI2005           :       false
    --> NEI2016Beta       : on    true
    --> RETRO             :       false
    --> SHIP              :       false
    --> NEI2016Beta_SHIP  :       false
    --> MIX               :       false
    --> STREETS           :       false
    --> VOLCANO           :       false
    --> RCP_3PD           :       false 
    --> RCP_45            :       false
    --> RCP_60            :       false
    --> RCP_85            :       false
    --> QFED2             :       false
    --> +UValbedo+        :       false
    --> +TOMS_SBUV_O3+    :       false
    --> +LinStratChem+    :       false
    --> CEDS              :       false
    --> OMI_HTAP_SO2      :       false
# -----------------------------------------------------------------------------
100     Custom            : off   - 
101     SeaFlux           : off   DMS/ACET
102     ParaNOx           : off   NO/NO2/O3/HNO3
    --> LUT data format   :       nc
    --> LUT source dir    :       $ROOT/PARANOX/v2015-02
103     LightNOx          : off   NO
    --> OTD-LIS factors   :       true
    --> CDF table         :       $ROOT/LIGHTNOX/v2014-07/light_dist.ott2010.dat
104     SoilNOx           : off   NO 
    --> Use fertilizer NOx:       true
105     DustDead          : off   DST1/DST2/DST3/DST4 
106     DustGinoux        : off   DST1/DST2/DST3/DST4
107     SeaSalt           : off   SALA/SALC/Br2
    --> SALA lower radius :       0.01 
    --> SALA upper radius :       0.5
    --> SALC lower radius :       0.5
    --> SALC upper radius :       8.0
    --> Emit Br2          :       true  
    --> Br2 scaling       :       1.0 
108     MEGAN             : off   ISOP/ACET/PRPE/C2H4/ALD2
    --> Isoprene scaling  :       1.0 
109     MEGAN_Mono        : off   CO/OCPI/MONX
110     MEGAN_SOA         : off   MTPA/MTPO/LIMO/SESQ
111     GFED              : off   NO/CO/ALK4/ACET/MEK/ALD2/PRPE/C3H8/CH2O/C2H6/SO2/NH3/BCPO/BCPI/OCPO/OCPI/POA1/NAP
    --> GFED3             :       false 
    --> GFED4             :       true
    --> GFED_daily        :       false
    --> GFED_3hourly      :       false
    --> CO scale factor   :       1.05
    --> POA scale factor  :       1.27
    --> NAP scale factor  :       2.75e-4
    --> hydrophilic BC    :       0.2
    --> hydrophilic OC    :       0.5
114     FINN              : off   NO/CO/ALK4/ACET/MEK/ALD2/PRPE/C3H8/CH2O/C2H6/SO2/NH3/BCPI/BCPO/OCPI/OCPO/GLYC/HAC
    --> FINN_daily        :       false
    --> CO scale factor   :       1.0
    --> hydrophilic BC    :       0.2
    --> hydrophilic OC    :       0.5

### END SECTION EXTENSION SWITCHES ###

###############################################################################
### BEGIN SECTION BASE EMISSIONS 
###############################################################################

# ExtNr	Name sourceFile	sourceVar sourceTime C/R/E SrcDim SrcUnit Species ScalIDs Cat Hier
0 UNIFORM 1.0 - * C xy kg/m2/s NO - 1 5

#==============================================================================
# --- NEI 2016 (USA) ---
#==============================================================================
(((NEI2016Beta
# SURFACE ALL INVENTORY
#0 NEI2016Beta_SURFACE_CO             $ROOT/NEI2016Beta/v2019-05/$MM/NEI2016Beta_0.1x0.1_2016$MM$DD_all.nc          CO            2016/1-12/1-31/$HH C xy  kg/m2/s  CO           1007     1 50 
#0 NEI2016Beta_SURFACE_SO2            $ROOT/NEI2016Beta/v2019-05/$MM/NEI2016Beta_0.1x0.1_2016$MM$DD_all.nc          SO2           2016/1-12/1-31/$HH C xy  kg/m2/s  SO2          1007     1 50
#0 NEI2016Beta_SURFACE_NO             $ROOT/NEI2016Beta/v2019-05/$MM/NEI2016Beta_0.1x0.1_2016$MM$DD_all.nc          NO            2016/1-12/1-31/$HH C xy  kg/m2/s  NO           1007     1 50
#0 NEI2016Beta_SURFACE_NO2            $ROOT/NEI2016Beta/v2019-05/$MM/NEI2016Beta_0.1x0.1_2016$MM$DD_all.nc          NO2           2016/1-12/1-31/$HH C xy  kg/m2/s  NO2          1007     1 50
#0 NEI2016Beta_SURFACE_HCL            $ROOT/NEI2016Beta/v2019-05/$MM/NEI2016Beta_0.1x0.1_2016$MM$DD_all.nc          HCL           2016/1-12/1-31/$HH C xy  kg/m2/s  HCL          1007     1 50
#0 NEI2016Beta_SURFACE_CL2            $ROOT/NEI2016Beta/v2019-05/$MM/NEI2016Beta_0.1x0.1_2016$MM$DD_all.nc          CL2           2016/1-12/1-31/$HH C xy  kg/m2/s  CL2          1007     1 50
#0 NEI2016Beta_SURFACE_HONO           $ROOT/NEI2016Beta/v2019-05/$MM/NEI2016Beta_0.1x0.1_2016$MM$DD_all.nc          HONO          2016/1-12/1-31/$HH C xy  kg/m2/s  HONO         1007     1 50
#0 NEI2016Beta_SURFACE_SULF           $ROOT/NEI2016Beta/v2019-05/$MM/NEI2016Beta_0.1x0.1_2016$MM$DD_all.nc          SULF          2016/1-12/1-31/$HH C xy  kg/m2/s  SULF         1007     1 50
#0 NEI2016Beta_SURFACE_NH3            $ROOT/NEI2016Beta/v2019-05/$MM/NEI2016Beta_0.1x0.1_2016$MM$DD_all.nc          NH3           2016/1-12/1-31/$HH C xy  kg/m2/s  NH3          1007     1 50
#0 NEI2016Beta_SURFACE_NH3_FERT       $ROOT/NEI2016Beta/v2019-05/$MM/NEI2016Beta_0.1x0.1_2016$MM$DD_all.nc          NH3_FERT      2016/1-12/1-31/$HH C xy  kg/m2/s  NH3_FERT     1007     1 50
#0 NEI2016Beta_SURFACE_CH4            $ROOT/NEI2016Beta/v2019-05/$MM/NEI2016Beta_0.1x0.1_2016$MM$DD_all.nc          CH4           2016/1-12/1-31/$HH C xy  kg/m2/s  CH4          1007     1 50
#0 NEI2016Beta_SURFACE_ACROLEIN       $ROOT/NEI2016Beta/v2019-05/$MM/NEI2016Beta_0.1x0.1_2016$MM$DD_all.nc          ACROLEIN      2016/1-12/1-31/$HH C xy  kgC/m2/s ACROLEIN     1007     1 50
#0 NEI2016Beta_SURFACE_BUTADIENE13    $ROOT/NEI2016Beta/v2019-05/$MM/NEI2016Beta_0.1x0.1_2016$MM$DD_all.nc          BUTADIENE13   2016/1-12/1-31/$HH C xy  kgC/m2/s BUTADIENE13  1007     1 50
#0 NEI2016Beta_SURFACE_ETHY           $ROOT/NEI2016Beta/v2019-05/$MM/NEI2016Beta_0.1x0.1_2016$MM$DD_all.nc          ETHY          2016/1-12/1-31/$HH C xy  kgC/m2/s ETHY         1007     1 50
#0 NEI2016Beta_SURFACE_TERP           $ROOT/NEI2016Beta/v2019-05/$MM/NEI2016Beta_0.1x0.1_2016$MM$DD_all.nc          TERP          2016/1-12/1-31/$HH C xy  kgC/m2/s TERP         1007     1 50
#0 NEI2016Beta_SURFACE_FORM           $ROOT/NEI2016Beta/v2019-05/$MM/NEI2016Beta_0.1x0.1_2016$MM$DD_all.nc          FORM          2016/1-12/1-31/$HH C xy  kgC/m2/s FORM         1007     1 50
#0 NEI2016Beta_SURFACE_PAR            $ROOT/NEI2016Beta/v2019-05/$MM/NEI2016Beta_0.1x0.1_2016$MM$DD_all.nc          PAR           2016/1-12/1-31/$HH C xy  kgC/m2/s PAR          1007     1 50
#0 NEI2016Beta_SURFACE_IOLE           $ROOT/NEI2016Beta/v2019-05/$MM/NEI2016Beta_0.1x0.1_2016$MM$DD_all.nc          IOLE          2016/1-12/1-31/$HH C xy  kgC/m2/s IOLE 	1007     1 50
#0 NEI2016Beta_SURFACE_OLE            $ROOT/NEI2016Beta/v2019-05/$MM/NEI2016Beta_0.1x0.1_2016$MM$DD_all.nc          OLE           2016/1-12/1-31/$HH C xy  kgC/m2/s OLE 	        1007     1 50
#0 NEI2016Beta_SURFACE_ETH            $ROOT/NEI2016Beta/v2019-05/$MM/NEI2016Beta_0.1x0.1_2016$MM$DD_all.nc          ETH     	 2016/1-12/1-31/$HH C xy  kgC/m2/s ETH  	1007     1 50
#0 NEI2016Beta_SURFACE_ETHA           $ROOT/NEI2016Beta/v2019-05/$MM/NEI2016Beta_0.1x0.1_2016$MM$DD_all.nc          ETHA          2016/1-12/1-31/$HH C xy  kgC/m2/s ETHA  	1007     1 50
#0 NEI2016Beta_SURFACE_ETOH           $ROOT/NEI2016Beta/v2019-05/$MM/NEI2016Beta_0.1x0.1_2016$MM$DD_all.nc          ETOH          2016/1-12/1-31/$HH C xy  kgC/m2/s ETOH  	1007     1 50
#0 NEI2016Beta_SURFACE_MEOH           $ROOT/NEI2016Beta/v2019-05/$MM/NEI2016Beta_0.1x0.1_2016$MM$DD_all.nc          MEOH          2016/1-12/1-31/$HH C xy  kgC/m2/s MEOH  	1007     1 50
#0 NEI2016Beta_SURFACE_BENZ           $ROOT/NEI2016Beta/v2019-05/$MM/NEI2016Beta_0.1x0.1_2016$MM$DD_all.nc          BENZ          2016/1-12/1-31/$HH C xy  kgC/m2/s BENZ 	1007     1 50
#0 NEI2016Beta_SURFACE_TOL  	      $ROOT/NEI2016Beta/v2019-05/$MM/NEI2016Beta_0.1x0.1_2016$MM$DD_all.nc          TOL           2016/1-12/1-31/$HH C xy  kgC/m2/s TOL 	1007     1 50
#0 NEI2016Beta_SURFACE_XYLMN          $ROOT/NEI2016Beta/v2019-05/$MM/NEI2016Beta_0.1x0.1_2016$MM$DD_all.nc          XYLMN         2016/1-12/1-31/$HH C xy  kgC/m2/s XYLMN 	1007     1 50
#0 NEI2016Beta_SURFACE_NAPH           $ROOT/NEI2016Beta/v2019-05/$MM/NEI2016Beta_0.1x0.1_2016$MM$DD_all.nc          NAPH          2016/1-12/1-31/$HH C xy  kgC/m2/s NAPH 	1007     1 50
#0 NEI2016Beta_SURFACE_ALD2           $ROOT/NEI2016Beta/v2019-05/$MM/NEI2016Beta_0.1x0.1_2016$MM$DD_all.nc          ALD2          2016/1-12/1-31/$HH C xy  kgC/m2/s ALD2 	1007     1 50
#0 NEI2016Beta_SURFACE_ALDX           $ROOT/NEI2016Beta/v2019-05/$MM/NEI2016Beta_0.1x0.1_2016$MM$DD_all.nc          ALDX          2016/1-12/1-31/$HH C xy  kgC/m2/s ALDX 	1007     1 50
#0 NEI2016Beta_SURFACE_ISOP           $ROOT/NEI2016Beta/v2019-05/$MM/NEI2016Beta_0.1x0.1_2016$MM$DD_all.nc          ISOP          2016/1-12/1-31/$HH C xy  kgC/m2/s ISOP 	1007     1 50
#0 NEI2016Beta_SURFACE_PRPA           $ROOT/NEI2016Beta/v2019-05/$MM/NEI2016Beta_0.1x0.1_2016$MM$DD_all.nc          PRPA          2016/1-12/1-31/$HH C xy  kgC/m2/s PRPA 	1007     1 50
#0 NEI2016Beta_SURFACE_ACET           $ROOT/NEI2016Beta/v2019-05/$MM/NEI2016Beta_0.1x0.1_2016$MM$DD_all.nc          ACET          2016/1-12/1-31/$HH C xy  kgC/m2/s ACET 	1007     1 50
#0 NEI2016Beta_SURFACE_KET            $ROOT/NEI2016Beta/v2019-05/$MM/NEI2016Beta_0.1x0.1_2016$MM$DD_all.nc          KET           2016/1-12/1-31/$HH C xy  kgC/m2/s KET  	1007     1 50
#0 NEI2016Beta_SURFACE_ALD2_PRIMARY   $ROOT/NEI2016Beta/v2019-05/$MM/NEI2016Beta_0.1x0.1_2016$MM$DD_all.nc          ALD2_PRIMARY  2016/1-12/1-31/$HH C xy  kgC/m2/s ALD2_PRIMARY 1007     1 50
#0 NEI2016Beta_SURFACE_FORM_PRIMARY   $ROOT/NEI2016Beta/v2019-05/$MM/NEI2016Beta_0.1x0.1_2016$MM$DD_all.nc          FORM_PRIMARY  2016/1-12/1-31/$HH C xy  kgC/m2/s FORM_PRIMARY 1007     1 50
#0 NEI2016Beta_SURFACE_SOAALK         $ROOT/NEI2016Beta/v2019-05/$MM/NEI2016Beta_0.1x0.1_2016$MM$DD_all.nc          SOAALK        2016/1-12/1-31/$HH C xy  kgC/m2/s SOAALK 	1007     1 50
#0 NEI2016Beta_SURFACE_PEC            $ROOT/NEI2016Beta/v2019-05/$MM/NEI2016Beta_0.1x0.1_2016$MM$DD_all.nc          PEC           2016/1-12/1-31/$HH C xy  kg/m2/s  PEC  	1007     1 50
#0 NEI2016Beta_SURFACE_POC            $ROOT/NEI2016Beta/v2019-05/$MM/NEI2016Beta_0.1x0.1_2016$MM$DD_all.nc          POC           2016/1-12/1-31/$HH C xy  kg/m2/s  POC  	1007     1 50
#0 NEI2016Beta_SURFACE_PAL            $ROOT/NEI2016Beta/v2019-05/$MM/NEI2016Beta_0.1x0.1_2016$MM$DD_all.nc          PAL           2016/1-12/1-31/$HH C xy  kg/m2/s  PAL  	1007     1 50
#0 NEI2016Beta_SURFACE_PCA            $ROOT/NEI2016Beta/v2019-05/$MM/NEI2016Beta_0.1x0.1_2016$MM$DD_all.nc          PCA           2016/1-12/1-31/$HH C xy  kg/m2/s  PCA  	1007     1 50
#0 NEI2016Beta_SURFACE_PCL            $ROOT/NEI2016Beta/v2019-05/$MM/NEI2016Beta_0.1x0.1_2016$MM$DD_all.nc          PCL           2016/1-12/1-31/$HH C xy  kg/m2/s  PCL  	1007     1 50
#0 NEI2016Beta_SURFACE_PFE            $ROOT/NEI2016Beta/v2019-05/$MM/NEI2016Beta_0.1x0.1_2016$MM$DD_all.nc          PFE           2016/1-12/1-31/$HH C xy  kg/m2/s  PFE  	1007     1 50
#0 NEI2016Beta_SURFACE_PH2O           $ROOT/NEI2016Beta/v2019-05/$MM/NEI2016Beta_0.1x0.1_2016$MM$DD_all.nc          PH2O          2016/1-12/1-31/$HH C xy  kg/m2/s  PH2O  	1007     1 50
#0 NEI2016Beta_SURFACE_PK             $ROOT/NEI2016Beta/v2019-05/$MM/NEI2016Beta_0.1x0.1_2016$MM$DD_all.nc          PK            2016/1-12/1-31/$HH C xy  kg/m2/s  PK  	        1007     1 50
#0 NEI2016Beta_SURFACE_PMG            $ROOT/NEI2016Beta/v2019-05/$MM/NEI2016Beta_0.1x0.1_2016$MM$DD_all.nc          PMG           2016/1-12/1-31/$HH C xy  kg/m2/s  PMG  	1007     1 50
#0 NEI2016Beta_SURFACE_PMN            $ROOT/NEI2016Beta/v2019-05/$MM/NEI2016Beta_0.1x0.1_2016$MM$DD_all.nc          PMN           2016/1-12/1-31/$HH C xy  kg/m2/s  PMN  	1007     1 50
#0 NEI2016Beta_SURFACE_PMOTHR         $ROOT/NEI2016Beta/v2019-05/$MM/NEI2016Beta_0.1x0.1_2016$MM$DD_all.nc          PMOTHR        2016/1-12/1-31/$HH C xy  kg/m2/s  PMOTHR  	1007     1 50
#0 NEI2016Beta_SURFACE_PNA            $ROOT/NEI2016Beta/v2019-05/$MM/NEI2016Beta_0.1x0.1_2016$MM$DD_all.nc          PNA           2016/1-12/1-31/$HH C xy  kg/m2/s  PNA  	1007     1 50
#0 NEI2016Beta_SURFACE_PNCOM          $ROOT/NEI2016Beta/v2019-05/$MM/NEI2016Beta_0.1x0.1_2016$MM$DD_all.nc          PNCOM         2016/1-12/1-31/$HH C xy  kg/m2/s  PNCOM  	1007     1 50
#0 NEI2016Beta_SURFACE_PNH4           $ROOT/NEI2016Beta/v2019-05/$MM/NEI2016Beta_0.1x0.1_2016$MM$DD_all.nc          PNH4          2016/1-12/1-31/$HH C xy  kg/m2/s  PNH4  	1007     1 50
#0 NEI2016Beta_SURFACE_PNO3           $ROOT/NEI2016Beta/v2019-05/$MM/NEI2016Beta_0.1x0.1_2016$MM$DD_all.nc          PNO3          2016/1-12/1-31/$HH C xy  kg/m2/s  PNO3  	1007     1 50
#0 NEI2016Beta_SURFACE_PTI            $ROOT/NEI2016Beta/v2019-05/$MM/NEI2016Beta_0.1x0.1_2016$MM$DD_all.nc          PTI           2016/1-12/1-31/$HH C xy  kg/m2/s  PTI  	1007     1 50
#0 NEI2016Beta_SURFACE_PSI            $ROOT/NEI2016Beta/v2019-05/$MM/NEI2016Beta_0.1x0.1_2016$MM$DD_all.nc          PSI           2016/1-12/1-31/$HH C xy  kg/m2/s  PSI  	1007     1 50
#0 NEI2016Beta_SURFACE_PMC            $ROOT/NEI2016Beta/v2019-05/$MM/NEI2016Beta_0.1x0.1_2016$MM$DD_all.nc          PMC           2016/1-12/1-31/$HH C xy  kg/m2/s  PMC  	1007     1 50
#0 NEI2016Beta_SURFACE_PSO4           $ROOT/NEI2016Beta/v2019-05/$MM/NEI2016Beta_0.1x0.1_2016$MM$DD_all.nc          PSO4          2016/1-12/1-31/$HH C xy  kg/m2/s  PSO4  	1007     1 50

# SURFACE AFDUSTADJ INVENTORY
0 NEI2016Beta_AFDUSTADJ_PEC            $ROOT/NEI2016Beta/v2019-05/$MM/NEI2016Beta_0.1x0.1_2016$MM$DD_afdustadj.nc          PEC           2016/1-12/1-31/$HH C xy  kg/m2/s  PEC         1007     1 50
0 NEI2016Beta_AFDUSTADJ_POC            $ROOT/NEI2016Beta/v2019-05/$MM/NEI2016Beta_0.1x0.1_2016$MM$DD_afdustadj.nc          POC           2016/1-12/1-31/$HH C xy  kg/m2/s  POC         1007     1 50
0 NEI2016Beta_AFDUSTADJ_PAL            $ROOT/NEI2016Beta/v2019-05/$MM/NEI2016Beta_0.1x0.1_2016$MM$DD_afdustadj.nc          PAL           2016/1-12/1-31/$HH C xy  kg/m2/s  PAL         1007     1 50
0 NEI2016Beta_AFDUSTADJ_PCA            $ROOT/NEI2016Beta/v2019-05/$MM/NEI2016Beta_0.1x0.1_2016$MM$DD_afdustadj.nc          PCA           2016/1-12/1-31/$HH C xy  kg/m2/s  PCA         1007     1 50
0 NEI2016Beta_AFDUSTADJ_PCL            $ROOT/NEI2016Beta/v2019-05/$MM/NEI2016Beta_0.1x0.1_2016$MM$DD_afdustadj.nc          PCL           2016/1-12/1-31/$HH C xy  kg/m2/s  PCL         1007     1 50
0 NEI2016Beta_AFDUSTADJ_PFE            $ROOT/NEI2016Beta/v2019-05/$MM/NEI2016Beta_0.1x0.1_2016$MM$DD_afdustadj.nc          PFE           2016/1-12/1-31/$HH C xy  kg/m2/s  PFE         1007     1 50
0 NEI2016Beta_AFDUSTADJ_PH2O           $ROOT/NEI2016Beta/v2019-05/$MM/NEI2016Beta_0.1x0.1_2016$MM$DD_afdustadj.nc          PH2O          2016/1-12/1-31/$HH C xy  kg/m2/s  PH2O        1007     1 50
0 NEI2016Beta_AFDUSTADJ_PK             $ROOT/NEI2016Beta/v2019-05/$MM/NEI2016Beta_0.1x0.1_2016$MM$DD_afdustadj.nc          PK            2016/1-12/1-31/$HH C xy  kg/m2/s  PK          1007     1 50
0 NEI2016Beta_AFDUSTADJ_PMG            $ROOT/NEI2016Beta/v2019-05/$MM/NEI2016Beta_0.1x0.1_2016$MM$DD_afdustadj.nc          PMG           2016/1-12/1-31/$HH C xy  kg/m2/s  PMG         1007     1 50
0 NEI2016Beta_AFDUSTADJ_PMN            $ROOT/NEI2016Beta/v2019-05/$MM/NEI2016Beta_0.1x0.1_2016$MM$DD_afdustadj.nc          PMN           2016/1-12/1-31/$HH C xy  kg/m2/s  PMN         1007     1 50
0 NEI2016Beta_AFDUSTADJ_PMOTHR         $ROOT/NEI2016Beta/v2019-05/$MM/NEI2016Beta_0.1x0.1_2016$MM$DD_afdustadj.nc          PMOTHR        2016/1-12/1-31/$HH C xy  kg/m2/s  PMOTHR      1007     1 50
0 NEI2016Beta_AFDUSTADJ_PNA            $ROOT/NEI2016Beta/v2019-05/$MM/NEI2016Beta_0.1x0.1_2016$MM$DD_afdustadj.nc          PNA           2016/1-12/1-31/$HH C xy  kg/m2/s  PNA         1007     1 50
0 NEI2016Beta_AFDUSTADJ_PNCOM          $ROOT/NEI2016Beta/v2019-05/$MM/NEI2016Beta_0.1x0.1_2016$MM$DD_afdustadj.nc          PNCOM         2016/1-12/1-31/$HH C xy  kg/m2/s  PNCOM       1007     1 50
0 NEI2016Beta_AFDUSTADJ_PNH4           $ROOT/NEI2016Beta/v2019-05/$MM/NEI2016Beta_0.1x0.1_2016$MM$DD_afdustadj.nc          PNH4          2016/1-12/1-31/$HH C xy  kg/m2/s  PNH4        1007     1 50
0 NEI2016Beta_AFDUSTADJ_PNO3           $ROOT/NEI2016Beta/v2019-05/$MM/NEI2016Beta_0.1x0.1_2016$MM$DD_afdustadj.nc          PNO3          2016/1-12/1-31/$HH C xy  kg/m2/s  PNO3        1007     1 50
0 NEI2016Beta_AFDUSTADJ_PTI            $ROOT/NEI2016Beta/v2019-05/$MM/NEI2016Beta_0.1x0.1_2016$MM$DD_afdustadj.nc          PTI           2016/1-12/1-31/$HH C xy  kg/m2/s  PTI         1007     1 50
0 NEI2016Beta_AFDUSTADJ_PSI            $ROOT/NEI2016Beta/v2019-05/$MM/NEI2016Beta_0.1x0.1_2016$MM$DD_afdustadj.nc          PSI           2016/1-12/1-31/$HH C xy  kg/m2/s  PSI         1007     1 50
0 NEI2016Beta_AFDUSTADJ_PMC            $ROOT/NEI2016Beta/v2019-05/$MM/NEI2016Beta_0.1x0.1_2016$MM$DD_afdustadj.nc          PMC           2016/1-12/1-31/$HH C xy  kg/m2/s  PMC         1007     1 50
0 NEI2016Beta_AFDUSTADJ_PSO4           $ROOT/NEI2016Beta/v2019-05/$MM/NEI2016Beta_0.1x0.1_2016$MM$DD_afdustadj.nc          PSO4          2016/1-12/1-31/$HH C xy  kg/m2/s  PSO4        1007     1 50


# SURFACE AG INVENTORY
0 NEI2016Beta_AG_NH3            $ROOT/NEI2016Beta/v2019-05/$MM/NEI2016Beta_0.1x0.1_2016$MM$DD_ag.nc          NH3           2016/1-12/1-31/$HH C xy  kg/m2/s  NH3          1007     2 50
0 NEI2016Beta_AG_NH3_FERT       $ROOT/NEI2016Beta/v2019-05/$MM/NEI2016Beta_0.1x0.1_2016$MM$DD_ag.nc          NH3_FERT      2016/1-12/1-31/$HH C xy  kg/m2/s  NH3_FERT     1007     2 50

# SURFACE AIRPORTS INVENTORY

# SURFACE NONROAD INVENTORY
0 NEI2016Beta_NONROAD_CO             $ROOT/NEI2016Beta/v2019-05/$MM/NEI2016Beta_0.1x0.1_2016$MM$DD_nonroad.nc          CO            2016/1-12/1-31/$HH C xy  kg/m2/s  CO           1007     4 50
0 NEI2016Beta_NONROAD_SO2            $ROOT/NEI2016Beta/v2019-05/$MM/NEI2016Beta_0.1x0.1_2016$MM$DD_nonroad.nc          SO2           2016/1-12/1-31/$HH C xy  kg/m2/s  SO2          1007     4 50
0 NEI2016Beta_NONROAD_NO             $ROOT/NEI2016Beta/v2019-05/$MM/NEI2016Beta_0.1x0.1_2016$MM$DD_nonroad.nc          NO            2016/1-12/1-31/$HH C xy  kg/m2/s  NO           1007     4 50
0 NEI2016Beta_NONROAD_NO2            $ROOT/NEI2016Beta/v2019-05/$MM/NEI2016Beta_0.1x0.1_2016$MM$DD_nonroad.nc          NO2           2016/1-12/1-31/$HH C xy  kg/m2/s  NO2          1007     4 50
0 NEI2016Beta_NONROAD_HONO           $ROOT/NEI2016Beta/v2019-05/$MM/NEI2016Beta_0.1x0.1_2016$MM$DD_nonroad.nc          HONO          2016/1-12/1-31/$HH C xy  kg/m2/s  HONO         1007     4 50
0 NEI2016Beta_NONROAD_SULF           $ROOT/NEI2016Beta/v2019-05/$MM/NEI2016Beta_0.1x0.1_2016$MM$DD_nonroad.nc          SULF          2016/1-12/1-31/$HH C xy  kg/m2/s  SULF         1007     4 50
0 NEI2016Beta_NONROAD_NH3            $ROOT/NEI2016Beta/v2019-05/$MM/NEI2016Beta_0.1x0.1_2016$MM$DD_nonroad.nc          NH3           2016/1-12/1-31/$HH C xy  kg/m2/s  NH3          1007     4 50
0 NEI2016Beta_NONROAD_NH3_FERT       $ROOT/NEI2016Beta/v2019-05/$MM/NEI2016Beta_0.1x0.1_2016$MM$DD_nonroad.nc          NH3_FERT      2016/1-12/1-31/$HH C xy  kg/m2/s  NH3_FERT     1007     4 50
0 NEI2016Beta_NONROAD_CH4            $ROOT/NEI2016Beta/v2019-05/$MM/NEI2016Beta_0.1x0.1_2016$MM$DD_nonroad.nc          CH4           2016/1-12/1-31/$HH C xy  kg/m2/s  CH4          1007     4 50
0 NEI2016Beta_NONROAD_ACROLEIN       $ROOT/NEI2016Beta/v2019-05/$MM/NEI2016Beta_0.1x0.1_2016$MM$DD_nonroad.nc          ACROLEIN      2016/1-12/1-31/$HH C xy  kgC/m2/s ACROLEIN     1007     4 50
0 NEI2016Beta_NONROAD_BUTADIENE13    $ROOT/NEI2016Beta/v2019-05/$MM/NEI2016Beta_0.1x0.1_2016$MM$DD_nonroad.nc          BUTADIENE13   2016/1-12/1-31/$HH C xy  kgC/m2/s BUTADIENE13  1007     4 50
0 NEI2016Beta_NONROAD_ETHY           $ROOT/NEI2016Beta/v2019-05/$MM/NEI2016Beta_0.1x0.1_2016$MM$DD_nonroad.nc          ETHY          2016/1-12/1-31/$HH C xy  kgC/m2/s ETHY         1007     4 50
0 NEI2016Beta_NONROAD_TERP           $ROOT/NEI2016Beta/v2019-05/$MM/NEI2016Beta_0.1x0.1_2016$MM$DD_nonroad.nc          TERP          2016/1-12/1-31/$HH C xy  kgC/m2/s TERP         1007     4 50
0 NEI2016Beta_NONROAD_FORM           $ROOT/NEI2016Beta/v2019-05/$MM/NEI2016Beta_0.1x0.1_2016$MM$DD_nonroad.nc          FORM          2016/1-12/1-31/$HH C xy  kgC/m2/s FORM         1007     4 50
0 NEI2016Beta_NONROAD_PAR            $ROOT/NEI2016Beta/v2019-05/$MM/NEI2016Beta_0.1x0.1_2016$MM$DD_nonroad.nc          PAR           2016/1-12/1-31/$HH C xy  kgC/m2/s PAR          1007     4 50
0 NEI2016Beta_NONROAD_IOLE           $ROOT/NEI2016Beta/v2019-05/$MM/NEI2016Beta_0.1x0.1_2016$MM$DD_nonroad.nc          IOLE          2016/1-12/1-31/$HH C xy  kgC/m2/s IOLE         1007     4 50
0 NEI2016Beta_NONROAD_OLE            $ROOT/NEI2016Beta/v2019-05/$MM/NEI2016Beta_0.1x0.1_2016$MM$DD_nonroad.nc          OLE           2016/1-12/1-31/$HH C xy  kgC/m2/s OLE          1007     4 50
0 NEI2016Beta_NONROAD_ETH            $ROOT/NEI2016Beta/v2019-05/$MM/NEI2016Beta_0.1x0.1_2016$MM$DD_nonroad.nc          ETH           2016/1-12/1-31/$HH C xy  kgC/m2/s ETH          1007     4 50
0 NEI2016Beta_NONROAD_ETHA           $ROOT/NEI2016Beta/v2019-05/$MM/NEI2016Beta_0.1x0.1_2016$MM$DD_nonroad.nc          ETHA          2016/1-12/1-31/$HH C xy  kgC/m2/s ETHA         1007     4 50
0 NEI2016Beta_NONROAD_ETOH           $ROOT/NEI2016Beta/v2019-05/$MM/NEI2016Beta_0.1x0.1_2016$MM$DD_nonroad.nc          ETOH          2016/1-12/1-31/$HH C xy  kgC/m2/s ETOH         1007     4 50
0 NEI2016Beta_NONROAD_MEOH           $ROOT/NEI2016Beta/v2019-05/$MM/NEI2016Beta_0.1x0.1_2016$MM$DD_nonroad.nc          MEOH          2016/1-12/1-31/$HH C xy  kgC/m2/s MEOH         1007     4 50
0 NEI2016Beta_NONROAD_BENZ           $ROOT/NEI2016Beta/v2019-05/$MM/NEI2016Beta_0.1x0.1_2016$MM$DD_nonroad.nc          BENZ          2016/1-12/1-31/$HH C xy  kgC/m2/s BENZ         1007     4 50
0 NEI2016Beta_NONROAD_TOL            $ROOT/NEI2016Beta/v2019-05/$MM/NEI2016Beta_0.1x0.1_2016$MM$DD_nonroad.nc          TOL           2016/1-12/1-31/$HH C xy  kgC/m2/s TOL          1007     4 50
0 NEI2016Beta_NONROAD_XYLMN          $ROOT/NEI2016Beta/v2019-05/$MM/NEI2016Beta_0.1x0.1_2016$MM$DD_nonroad.nc          XYLMN         2016/1-12/1-31/$HH C xy  kgC/m2/s XYLMN        1007     4 50
0 NEI2016Beta_NONROAD_NAPH           $ROOT/NEI2016Beta/v2019-05/$MM/NEI2016Beta_0.1x0.1_2016$MM$DD_nonroad.nc          NAPH          2016/1-12/1-31/$HH C xy  kgC/m2/s NAPH         1007     4 50
0 NEI2016Beta_NONROAD_ALD2           $ROOT/NEI2016Beta/v2019-05/$MM/NEI2016Beta_0.1x0.1_2016$MM$DD_nonroad.nc          ALD2          2016/1-12/1-31/$HH C xy  kgC/m2/s ALD2         1007     4 50
0 NEI2016Beta_NONROAD_ALDX           $ROOT/NEI2016Beta/v2019-05/$MM/NEI2016Beta_0.1x0.1_2016$MM$DD_nonroad.nc          ALDX          2016/1-12/1-31/$HH C xy  kgC/m2/s ALDX         1007     4 50
0 NEI2016Beta_NONROAD_ISOP           $ROOT/NEI2016Beta/v2019-05/$MM/NEI2016Beta_0.1x0.1_2016$MM$DD_nonroad.nc          ISOP          2016/1-12/1-31/$HH C xy  kgC/m2/s ISOP         1007     4 50
0 NEI2016Beta_NONROAD_PRPA           $ROOT/NEI2016Beta/v2019-05/$MM/NEI2016Beta_0.1x0.1_2016$MM$DD_nonroad.nc          PRPA          2016/1-12/1-31/$HH C xy  kgC/m2/s PRPA         1007     4 50
0 NEI2016Beta_NONROAD_ACET           $ROOT/NEI2016Beta/v2019-05/$MM/NEI2016Beta_0.1x0.1_2016$MM$DD_nonroad.nc          ACET          2016/1-12/1-31/$HH C xy  kgC/m2/s ACET         1007     4 50
0 NEI2016Beta_NONROAD_KET            $ROOT/NEI2016Beta/v2019-05/$MM/NEI2016Beta_0.1x0.1_2016$MM$DD_nonroad.nc          KET           2016/1-12/1-31/$HH C xy  kgC/m2/s KET          1007     4 50
0 NEI2016Beta_NONROAD_ALD2_PRIMARY   $ROOT/NEI2016Beta/v2019-05/$MM/NEI2016Beta_0.1x0.1_2016$MM$DD_nonroad.nc          ALD2_PRIMARY  2016/1-12/1-31/$HH C xy  kgC/m2/s ALD2_PRIMARY 1007     4 50
0 NEI2016Beta_NONROAD_FORM_PRIMARY   $ROOT/NEI2016Beta/v2019-05/$MM/NEI2016Beta_0.1x0.1_2016$MM$DD_nonroad.nc          FORM_PRIMARY  2016/1-12/1-31/$HH C xy  kgC/m2/s FORM_PRIMARY 1007     4 50
0 NEI2016Beta_NONROAD_SOAALK         $ROOT/NEI2016Beta/v2019-05/$MM/NEI2016Beta_0.1x0.1_2016$MM$DD_nonroad.nc          SOAALK        2016/1-12/1-31/$HH C xy  kgC/m2/s SOAALK       1007     4 50
0 NEI2016Beta_NONROAD_PEC            $ROOT/NEI2016Beta/v2019-05/$MM/NEI2016Beta_0.1x0.1_2016$MM$DD_nonroad.nc          PEC           2016/1-12/1-31/$HH C xy  kg/m2/s  PEC          1007     4 50
0 NEI2016Beta_NONROAD_POC            $ROOT/NEI2016Beta/v2019-05/$MM/NEI2016Beta_0.1x0.1_2016$MM$DD_nonroad.nc          POC           2016/1-12/1-31/$HH C xy  kg/m2/s  POC          1007     4 50
0 NEI2016Beta_NONROAD_PAL            $ROOT/NEI2016Beta/v2019-05/$MM/NEI2016Beta_0.1x0.1_2016$MM$DD_nonroad.nc          PAL           2016/1-12/1-31/$HH C xy  kg/m2/s  PAL          1007     4 50
0 NEI2016Beta_NONROAD_PCA            $ROOT/NEI2016Beta/v2019-05/$MM/NEI2016Beta_0.1x0.1_2016$MM$DD_nonroad.nc          PCA           2016/1-12/1-31/$HH C xy  kg/m2/s  PCA          1007     4 50
0 NEI2016Beta_NONROAD_PCL            $ROOT/NEI2016Beta/v2019-05/$MM/NEI2016Beta_0.1x0.1_2016$MM$DD_nonroad.nc          PCL           2016/1-12/1-31/$HH C xy  kg/m2/s  PCL          1007     4 50
0 NEI2016Beta_NONROAD_PFE            $ROOT/NEI2016Beta/v2019-05/$MM/NEI2016Beta_0.1x0.1_2016$MM$DD_nonroad.nc          PFE           2016/1-12/1-31/$HH C xy  kg/m2/s  PFE          1007     4 50
0 NEI2016Beta_NONROAD_PH2O           $ROOT/NEI2016Beta/v2019-05/$MM/NEI2016Beta_0.1x0.1_2016$MM$DD_nonroad.nc          PH2O          2016/1-12/1-31/$HH C xy  kg/m2/s  PH2O         1007     4 50
0 NEI2016Beta_NONROAD_PK             $ROOT/NEI2016Beta/v2019-05/$MM/NEI2016Beta_0.1x0.1_2016$MM$DD_nonroad.nc          PK            2016/1-12/1-31/$HH C xy  kg/m2/s  PK           1007     4 50
0 NEI2016Beta_NONROAD_PMG            $ROOT/NEI2016Beta/v2019-05/$MM/NEI2016Beta_0.1x0.1_2016$MM$DD_nonroad.nc          PMG           2016/1-12/1-31/$HH C xy  kg/m2/s  PMG          1007     4 50
0 NEI2016Beta_NONROAD_PMN            $ROOT/NEI2016Beta/v2019-05/$MM/NEI2016Beta_0.1x0.1_2016$MM$DD_nonroad.nc          PMN           2016/1-12/1-31/$HH C xy  kg/m2/s  PMN          1007     4 50
0 NEI2016Beta_NONROAD_PMOTHR         $ROOT/NEI2016Beta/v2019-05/$MM/NEI2016Beta_0.1x0.1_2016$MM$DD_nonroad.nc          PMOTHR        2016/1-12/1-31/$HH C xy  kg/m2/s  PMOTHR       1007     4 50
0 NEI2016Beta_NONROAD_PNA            $ROOT/NEI2016Beta/v2019-05/$MM/NEI2016Beta_0.1x0.1_2016$MM$DD_nonroad.nc          PNA           2016/1-12/1-31/$HH C xy  kg/m2/s  PNA          1007     4 50
0 NEI2016Beta_NONROAD_PNCOM          $ROOT/NEI2016Beta/v2019-05/$MM/NEI2016Beta_0.1x0.1_2016$MM$DD_nonroad.nc          PNCOM         2016/1-12/1-31/$HH C xy  kg/m2/s  PNCOM        1007     4 50
0 NEI2016Beta_NONROAD_PNH4           $ROOT/NEI2016Beta/v2019-05/$MM/NEI2016Beta_0.1x0.1_2016$MM$DD_nonroad.nc          PNH4          2016/1-12/1-31/$HH C xy  kg/m2/s  PNH4         1007     4 50
0 NEI2016Beta_NONROAD_PNO3           $ROOT/NEI2016Beta/v2019-05/$MM/NEI2016Beta_0.1x0.1_2016$MM$DD_nonroad.nc          PNO3          2016/1-12/1-31/$HH C xy  kg/m2/s  PNO3         1007     4 50
0 NEI2016Beta_NONROAD_PTI            $ROOT/NEI2016Beta/v2019-05/$MM/NEI2016Beta_0.1x0.1_2016$MM$DD_nonroad.nc          PTI           2016/1-12/1-31/$HH C xy  kg/m2/s  PTI          1007     4 50
0 NEI2016Beta_NONROAD_PSI            $ROOT/NEI2016Beta/v2019-05/$MM/NEI2016Beta_0.1x0.1_2016$MM$DD_nonroad.nc          PSI           2016/1-12/1-31/$HH C xy  kg/m2/s  PSI          1007     4 50
0 NEI2016Beta_NONROAD_PMC            $ROOT/NEI2016Beta/v2019-05/$MM/NEI2016Beta_0.1x0.1_2016$MM$DD_nonroad.nc          PMC           2016/1-12/1-31/$HH C xy  kg/m2/s  PMC          1007     4 50
0 NEI2016Beta_NONROAD_PSO4           $ROOT/NEI2016Beta/v2019-05/$MM/NEI2016Beta_0.1x0.1_2016$MM$DD_nonroad.nc          PSO4          2016/1-12/1-31/$HH C xy  kg/m2/s  PSO4         1007     4 50

# SURFACE NONPT INVENTORY
0 NEI2016Beta_NONPT_CO             $ROOT/NEI2016Beta/v2019-05/$MM/NEI2016Beta_0.1x0.1_2016$MM$DD_nonpt.nc          CO            2016/1-12/1-31/$HH C xy  kg/m2/s  CO           1007     5 50
0 NEI2016Beta_NONPT_SO2            $ROOT/NEI2016Beta/v2019-05/$MM/NEI2016Beta_0.1x0.1_2016$MM$DD_nonpt.nc          SO2           2016/1-12/1-31/$HH C xy  kg/m2/s  SO2          1007     5 50
0 NEI2016Beta_NONPT_NO             $ROOT/NEI2016Beta/v2019-05/$MM/NEI2016Beta_0.1x0.1_2016$MM$DD_nonpt.nc          NO            2016/1-12/1-31/$HH C xy  kg/m2/s  NO           1007     5 50
0 NEI2016Beta_NONPT_NO2            $ROOT/NEI2016Beta/v2019-05/$MM/NEI2016Beta_0.1x0.1_2016$MM$DD_nonpt.nc          NO2           2016/1-12/1-31/$HH C xy  kg/m2/s  NO2          1007     5 50
0 NEI2016Beta_NONPT_HCL            $ROOT/NEI2016Beta/v2019-05/$MM/NEI2016Beta_0.1x0.1_2016$MM$DD_nonpt.nc          HCL           2016/1-12/1-31/$HH C xy  kg/m2/s  HCL          1007     5 50
0 NEI2016Beta_NONPT_CL2            $ROOT/NEI2016Beta/v2019-05/$MM/NEI2016Beta_0.1x0.1_2016$MM$DD_nonpt.nc          CL2           2016/1-12/1-31/$HH C xy  kg/m2/s  CL2          1007     5 50
0 NEI2016Beta_NONPT_HONO           $ROOT/NEI2016Beta/v2019-05/$MM/NEI2016Beta_0.1x0.1_2016$MM$DD_nonpt.nc          HONO          2016/1-12/1-31/$HH C xy  kg/m2/s  HONO         1007     5 50
0 NEI2016Beta_NONPT_SULF           $ROOT/NEI2016Beta/v2019-05/$MM/NEI2016Beta_0.1x0.1_2016$MM$DD_nonpt.nc          SULF          2016/1-12/1-31/$HH C xy  kg/m2/s  SULF         1007     5 50
0 NEI2016Beta_NONPT_NH3            $ROOT/NEI2016Beta/v2019-05/$MM/NEI2016Beta_0.1x0.1_2016$MM$DD_nonpt.nc          NH3           2016/1-12/1-31/$HH C xy  kg/m2/s  NH3          1007     5 50
0 NEI2016Beta_NONPT_NH3_FERT       $ROOT/NEI2016Beta/v2019-05/$MM/NEI2016Beta_0.1x0.1_2016$MM$DD_nonpt.nc          NH3_FERT      2016/1-12/1-31/$HH C xy  kg/m2/s  NH3_FERT     1007     5 50
0 NEI2016Beta_NONPT_CH4            $ROOT/NEI2016Beta/v2019-05/$MM/NEI2016Beta_0.1x0.1_2016$MM$DD_nonpt.nc          CH4           2016/1-12/1-31/$HH C xy  kg/m2/s  CH4          1007     5 50
0 NEI2016Beta_NONPT_ACROLEIN       $ROOT/NEI2016Beta/v2019-05/$MM/NEI2016Beta_0.1x0.1_2016$MM$DD_nonpt.nc          ACROLEIN      2016/1-12/1-31/$HH C xy  kgC/m2/s ACROLEIN     1007     5 50
0 NEI2016Beta_NONPT_BUTADIENE13    $ROOT/NEI2016Beta/v2019-05/$MM/NEI2016Beta_0.1x0.1_2016$MM$DD_nonpt.nc          BUTADIENE13   2016/1-12/1-31/$HH C xy  kgC/m2/s BUTADIENE13  1007     5 50
0 NEI2016Beta_NONPT_ETHY           $ROOT/NEI2016Beta/v2019-05/$MM/NEI2016Beta_0.1x0.1_2016$MM$DD_nonpt.nc          ETHY          2016/1-12/1-31/$HH C xy  kgC/m2/s ETHY         1007     5 50
0 NEI2016Beta_NONPT_TERP           $ROOT/NEI2016Beta/v2019-05/$MM/NEI2016Beta_0.1x0.1_2016$MM$DD_nonpt.nc          TERP          2016/1-12/1-31/$HH C xy  kgC/m2/s TERP         1007     5 50
0 NEI2016Beta_NONPT_FORM           $ROOT/NEI2016Beta/v2019-05/$MM/NEI2016Beta_0.1x0.1_2016$MM$DD_nonpt.nc          FORM          2016/1-12/1-31/$HH C xy  kgC/m2/s FORM         1007     5 50
0 NEI2016Beta_NONPT_PAR            $ROOT/NEI2016Beta/v2019-05/$MM/NEI2016Beta_0.1x0.1_2016$MM$DD_nonpt.nc          PAR           2016/1-12/1-31/$HH C xy  kgC/m2/s PAR          1007     5 50
0 NEI2016Beta_NONPT_IOLE           $ROOT/NEI2016Beta/v2019-05/$MM/NEI2016Beta_0.1x0.1_2016$MM$DD_nonpt.nc          IOLE          2016/1-12/1-31/$HH C xy  kgC/m2/s IOLE        1007     5 50
0 NEI2016Beta_NONPT_OLE            $ROOT/NEI2016Beta/v2019-05/$MM/NEI2016Beta_0.1x0.1_2016$MM$DD_nonpt.nc          OLE           2016/1-12/1-31/$HH C xy  kgC/m2/s OLE         1007     5 50
0 NEI2016Beta_NONPT_ETH            $ROOT/NEI2016Beta/v2019-05/$MM/NEI2016Beta_0.1x0.1_2016$MM$DD_nonpt.nc          ETH           2016/1-12/1-31/$HH C xy  kgC/m2/s ETH         1007     5 50
0 NEI2016Beta_NONPT_ETHA           $ROOT/NEI2016Beta/v2019-05/$MM/NEI2016Beta_0.1x0.1_2016$MM$DD_nonpt.nc          ETHA          2016/1-12/1-31/$HH C xy  kgC/m2/s ETHA        1007     5 50
0 NEI2016Beta_NONPT_ETOH           $ROOT/NEI2016Beta/v2019-05/$MM/NEI2016Beta_0.1x0.1_2016$MM$DD_nonpt.nc          ETOH          2016/1-12/1-31/$HH C xy  kgC/m2/s ETOH        1007     5 50
0 NEI2016Beta_NONPT_MEOH           $ROOT/NEI2016Beta/v2019-05/$MM/NEI2016Beta_0.1x0.1_2016$MM$DD_nonpt.nc          MEOH          2016/1-12/1-31/$HH C xy  kgC/m2/s MEOH        1007     5 50
0 NEI2016Beta_NONPT_BENZ           $ROOT/NEI2016Beta/v2019-05/$MM/NEI2016Beta_0.1x0.1_2016$MM$DD_nonpt.nc          BENZ          2016/1-12/1-31/$HH C xy  kgC/m2/s BENZ        1007     5 50
0 NEI2016Beta_NONPT_TOL            $ROOT/NEI2016Beta/v2019-05/$MM/NEI2016Beta_0.1x0.1_2016$MM$DD_nonpt.nc          TOL           2016/1-12/1-31/$HH C xy  kgC/m2/s TOL         1007     5 50
0 NEI2016Beta_NONPT_XYLMN          $ROOT/NEI2016Beta/v2019-05/$MM/NEI2016Beta_0.1x0.1_2016$MM$DD_nonpt.nc          XYLMN         2016/1-12/1-31/$HH C xy  kgC/m2/s XYLMN       1007     5 50
0 NEI2016Beta_NONPT_NAPH           $ROOT/NEI2016Beta/v2019-05/$MM/NEI2016Beta_0.1x0.1_2016$MM$DD_nonpt.nc          NAPH          2016/1-12/1-31/$HH C xy  kgC/m2/s NAPH        1007     5 50
0 NEI2016Beta_NONPT_ALD2           $ROOT/NEI2016Beta/v2019-05/$MM/NEI2016Beta_0.1x0.1_2016$MM$DD_nonpt.nc          ALD2          2016/1-12/1-31/$HH C xy  kgC/m2/s ALD2        1007     5 50
0 NEI2016Beta_NONPT_ALDX           $ROOT/NEI2016Beta/v2019-05/$MM/NEI2016Beta_0.1x0.1_2016$MM$DD_nonpt.nc          ALDX          2016/1-12/1-31/$HH C xy  kgC/m2/s ALDX        1007     5 50
0 NEI2016Beta_NONPT_ISOP           $ROOT/NEI2016Beta/v2019-05/$MM/NEI2016Beta_0.1x0.1_2016$MM$DD_nonpt.nc          ISOP          2016/1-12/1-31/$HH C xy  kgC/m2/s ISOP        1007     5 50
0 NEI2016Beta_NONPT_PRPA           $ROOT/NEI2016Beta/v2019-05/$MM/NEI2016Beta_0.1x0.1_2016$MM$DD_nonpt.nc          PRPA          2016/1-12/1-31/$HH C xy  kgC/m2/s PRPA        1007     5 50
0 NEI2016Beta_NONPT_ACET           $ROOT/NEI2016Beta/v2019-05/$MM/NEI2016Beta_0.1x0.1_2016$MM$DD_nonpt.nc          ACET          2016/1-12/1-31/$HH C xy  kgC/m2/s ACET        1007     5 50
0 NEI2016Beta_NONPT_KET            $ROOT/NEI2016Beta/v2019-05/$MM/NEI2016Beta_0.1x0.1_2016$MM$DD_nonpt.nc          KET           2016/1-12/1-31/$HH C xy  kgC/m2/s KET         1007     5 50
0 NEI2016Beta_NONPT_ALD2_PRIMARY   $ROOT/NEI2016Beta/v2019-05/$MM/NEI2016Beta_0.1x0.1_2016$MM$DD_nonpt.nc          ALD2_PRIMARY  2016/1-12/1-31/$HH C xy  kgC/m2/s ALD2_PRIMARY 1007     5 50
0 NEI2016Beta_NONPT_FORM_PRIMARY   $ROOT/NEI2016Beta/v2019-05/$MM/NEI2016Beta_0.1x0.1_2016$MM$DD_nonpt.nc          FORM_PRIMARY  2016/1-12/1-31/$HH C xy  kgC/m2/s FORM_PRIMARY 1007     5 50
0 NEI2016Beta_NONPT_SOAALK         $ROOT/NEI2016Beta/v2019-05/$MM/NEI2016Beta_0.1x0.1_2016$MM$DD_nonpt.nc          SOAALK        2016/1-12/1-31/$HH C xy  kgC/m2/s SOAALK      1007     5 50
0 NEI2016Beta_NONPT_PEC            $ROOT/NEI2016Beta/v2019-05/$MM/NEI2016Beta_0.1x0.1_2016$MM$DD_nonpt.nc          PEC           2016/1-12/1-31/$HH C xy  kg/m2/s  PEC         1007     5 50
0 NEI2016Beta_NONPT_POC            $ROOT/NEI2016Beta/v2019-05/$MM/NEI2016Beta_0.1x0.1_2016$MM$DD_nonpt.nc          POC           2016/1-12/1-31/$HH C xy  kg/m2/s  POC         1007     5 50
0 NEI2016Beta_NONPT_PAL            $ROOT/NEI2016Beta/v2019-05/$MM/NEI2016Beta_0.1x0.1_2016$MM$DD_nonpt.nc          PAL           2016/1-12/1-31/$HH C xy  kg/m2/s  PAL         1007     5 50
0 NEI2016Beta_NONPT_PCA            $ROOT/NEI2016Beta/v2019-05/$MM/NEI2016Beta_0.1x0.1_2016$MM$DD_nonpt.nc          PCA           2016/1-12/1-31/$HH C xy  kg/m2/s  PCA         1007     5 50
0 NEI2016Beta_NONPT_PCL            $ROOT/NEI2016Beta/v2019-05/$MM/NEI2016Beta_0.1x0.1_2016$MM$DD_nonpt.nc          PCL           2016/1-12/1-31/$HH C xy  kg/m2/s  PCL         1007     5 50
0 NEI2016Beta_NONPT_PFE            $ROOT/NEI2016Beta/v2019-05/$MM/NEI2016Beta_0.1x0.1_2016$MM$DD_nonpt.nc          PFE           2016/1-12/1-31/$HH C xy  kg/m2/s  PFE         1007     5 50
0 NEI2016Beta_NONPT_PH2O           $ROOT/NEI2016Beta/v2019-05/$MM/NEI2016Beta_0.1x0.1_2016$MM$DD_nonpt.nc          PH2O          2016/1-12/1-31/$HH C xy  kg/m2/s  PH2O        1007     5 50
0 NEI2016Beta_NONPT_PK             $ROOT/NEI2016Beta/v2019-05/$MM/NEI2016Beta_0.1x0.1_2016$MM$DD_nonpt.nc          PK            2016/1-12/1-31/$HH C xy  kg/m2/s  PK          1007     5 50
0 NEI2016Beta_NONPT_PMG            $ROOT/NEI2016Beta/v2019-05/$MM/NEI2016Beta_0.1x0.1_2016$MM$DD_nonpt.nc          PMG           2016/1-12/1-31/$HH C xy  kg/m2/s  PMG         1007     5 50
0 NEI2016Beta_NONPT_PMN            $ROOT/NEI2016Beta/v2019-05/$MM/NEI2016Beta_0.1x0.1_2016$MM$DD_nonpt.nc          PMN           2016/1-12/1-31/$HH C xy  kg/m2/s  PMN         1007     5 50
0 NEI2016Beta_NONPT_PMOTHR         $ROOT/NEI2016Beta/v2019-05/$MM/NEI2016Beta_0.1x0.1_2016$MM$DD_nonpt.nc          PMOTHR        2016/1-12/1-31/$HH C xy  kg/m2/s  PMOTHR      1007     5 50
0 NEI2016Beta_NONPT_PNA            $ROOT/NEI2016Beta/v2019-05/$MM/NEI2016Beta_0.1x0.1_2016$MM$DD_nonpt.nc          PNA           2016/1-12/1-31/$HH C xy  kg/m2/s  PNA         1007     5 50
0 NEI2016Beta_NONPT_PNCOM          $ROOT/NEI2016Beta/v2019-05/$MM/NEI2016Beta_0.1x0.1_2016$MM$DD_nonpt.nc          PNCOM         2016/1-12/1-31/$HH C xy  kg/m2/s  PNCOM       1007     5 50
0 NEI2016Beta_NONPT_PNH4           $ROOT/NEI2016Beta/v2019-05/$MM/NEI2016Beta_0.1x0.1_2016$MM$DD_nonpt.nc          PNH4          2016/1-12/1-31/$HH C xy  kg/m2/s  PNH4        1007     5 50
0 NEI2016Beta_NONPT_PNO3           $ROOT/NEI2016Beta/v2019-05/$MM/NEI2016Beta_0.1x0.1_2016$MM$DD_nonpt.nc          PNO3          2016/1-12/1-31/$HH C xy  kg/m2/s  PNO3        1007     5 50
0 NEI2016Beta_NONPT_PTI            $ROOT/NEI2016Beta/v2019-05/$MM/NEI2016Beta_0.1x0.1_2016$MM$DD_nonpt.nc          PTI           2016/1-12/1-31/$HH C xy  kg/m2/s  PTI         1007     5 50
0 NEI2016Beta_NONPT_PSI            $ROOT/NEI2016Beta/v2019-05/$MM/NEI2016Beta_0.1x0.1_2016$MM$DD_nonpt.nc          PSI           2016/1-12/1-31/$HH C xy  kg/m2/s  PSI         1007     5 50
0 NEI2016Beta_NONPT_PMC            $ROOT/NEI2016Beta/v2019-05/$MM/NEI2016Beta_0.1x0.1_2016$MM$DD_nonpt.nc          PMC           2016/1-12/1-31/$HH C xy  kg/m2/s  PMC         1007     5 50
0 NEI2016Beta_NONPT_PSO4           $ROOT/NEI2016Beta/v2019-05/$MM/NEI2016Beta_0.1x0.1_2016$MM$DD_nonpt.nc          PSO4          2016/1-12/1-31/$HH C xy  kg/m2/s  PSO4        1007     5 50

# SURFACE OTHAFDUSTADJ INVENTORY
0 NEI2016Beta_OTHAFDUSTADJ_PEC            $ROOT/NEI2016Beta/v2019-05/$MM/NEI2016Beta_0.1x0.1_2016$MM$DD_othafdustadj.nc          PEC           2016/1-12/1-31/$HH C xy  kg/m2/s  PEC  1007     6 50
0 NEI2016Beta_OTHAFDUSTADJ_POC            $ROOT/NEI2016Beta/v2019-05/$MM/NEI2016Beta_0.1x0.1_2016$MM$DD_othafdustadj.nc          POC           2016/1-12/1-31/$HH C xy  kg/m2/s  POC  1007     6 50
0 NEI2016Beta_OTHAFDUSTADJ_PAL            $ROOT/NEI2016Beta/v2019-05/$MM/NEI2016Beta_0.1x0.1_2016$MM$DD_othafdustadj.nc          PAL           2016/1-12/1-31/$HH C xy  kg/m2/s  PAL  1007     6 50
0 NEI2016Beta_OTHAFDUSTADJ_PCA            $ROOT/NEI2016Beta/v2019-05/$MM/NEI2016Beta_0.1x0.1_2016$MM$DD_othafdustadj.nc          PCA           2016/1-12/1-31/$HH C xy  kg/m2/s  PCA  1007     6 50
0 NEI2016Beta_OTHAFDUSTADJ_PCL            $ROOT/NEI2016Beta/v2019-05/$MM/NEI2016Beta_0.1x0.1_2016$MM$DD_othafdustadj.nc          PCL           2016/1-12/1-31/$HH C xy  kg/m2/s  PCL  1007     6 50
0 NEI2016Beta_OTHAFDUSTADJ_PFE            $ROOT/NEI2016Beta/v2019-05/$MM/NEI2016Beta_0.1x0.1_2016$MM$DD_othafdustadj.nc          PFE           2016/1-12/1-31/$HH C xy  kg/m2/s  PFE  1007     6 50
0 NEI2016Beta_OTHAFDUSTADJ_PH2O           $ROOT/NEI2016Beta/v2019-05/$MM/NEI2016Beta_0.1x0.1_2016$MM$DD_othafdustadj.nc          PH2O          2016/1-12/1-31/$HH C xy  kg/m2/s  PH2O 1007     6 50
0 NEI2016Beta_OTHAFDUSTADJ_PK             $ROOT/NEI2016Beta/v2019-05/$MM/NEI2016Beta_0.1x0.1_2016$MM$DD_othafdustadj.nc          PK            2016/1-12/1-31/$HH C xy  kg/m2/s  PK   1007     6 50
0 NEI2016Beta_OTHAFDUSTADJ_PMG            $ROOT/NEI2016Beta/v2019-05/$MM/NEI2016Beta_0.1x0.1_2016$MM$DD_othafdustadj.nc          PMG           2016/1-12/1-31/$HH C xy  kg/m2/s  PMG  1007     6 50
0 NEI2016Beta_OTHAFDUSTADJ_PMN            $ROOT/NEI2016Beta/v2019-05/$MM/NEI2016Beta_0.1x0.1_2016$MM$DD_othafdustadj.nc          PMN           2016/1-12/1-31/$HH C xy  kg/m2/s  PMN  1007     6 50
0 NEI2016Beta_OTHAFDUSTADJ_PMOTHR         $ROOT/NEI2016Beta/v2019-05/$MM/NEI2016Beta_0.1x0.1_2016$MM$DD_othafdustadj.nc          PMOTHR        2016/1-12/1-31/$HH C xy  kg/m2/s  PMOTHR 1007     6 50
0 NEI2016Beta_OTHAFDUSTADJ_PNA            $ROOT/NEI2016Beta/v2019-05/$MM/NEI2016Beta_0.1x0.1_2016$MM$DD_othafdustadj.nc          PNA           2016/1-12/1-31/$HH C xy  kg/m2/s  PNA    1007     6 50
0 NEI2016Beta_OTHAFDUSTADJ_PNCOM          $ROOT/NEI2016Beta/v2019-05/$MM/NEI2016Beta_0.1x0.1_2016$MM$DD_othafdustadj.nc          PNCOM         2016/1-12/1-31/$HH C xy  kg/m2/s  PNCOM  1007     6 50
0 NEI2016Beta_OTHAFDUSTADJ_PNH4           $ROOT/NEI2016Beta/v2019-05/$MM/NEI2016Beta_0.1x0.1_2016$MM$DD_othafdustadj.nc          PNH4          2016/1-12/1-31/$HH C xy  kg/m2/s  PNH4   1007     6 50
0 NEI2016Beta_OTHAFDUSTADJ_PNO3           $ROOT/NEI2016Beta/v2019-05/$MM/NEI2016Beta_0.1x0.1_2016$MM$DD_othafdustadj.nc          PNO3          2016/1-12/1-31/$HH C xy  kg/m2/s  PNO3   1007     6 50
0 NEI2016Beta_OTHAFDUSTADJ_PTI            $ROOT/NEI2016Beta/v2019-05/$MM/NEI2016Beta_0.1x0.1_2016$MM$DD_othafdustadj.nc          PTI           2016/1-12/1-31/$HH C xy  kg/m2/s  PTI    1007     6 50
0 NEI2016Beta_OTHAFDUSTADJ_PSI            $ROOT/NEI2016Beta/v2019-05/$MM/NEI2016Beta_0.1x0.1_2016$MM$DD_othafdustadj.nc          PSI           2016/1-12/1-31/$HH C xy  kg/m2/s  PSI    1007     6 50
0 NEI2016Beta_OTHAFDUSTADJ_PMC            $ROOT/NEI2016Beta/v2019-05/$MM/NEI2016Beta_0.1x0.1_2016$MM$DD_othafdustadj.nc          PMC           2016/1-12/1-31/$HH C xy  kg/m2/s  PMC    1007     6 50
0 NEI2016Beta_OTHAFDUSTADJ_PSO4           $ROOT/NEI2016Beta/v2019-05/$MM/NEI2016Beta_0.1x0.1_2016$MM$DD_othafdustadj.nc          PSO4          2016/1-12/1-31/$HH C xy  kg/m2/s  PSO4   1007     6 50

# SURFACE OTHPTDUSTADJ INVENTORY
0 NEI2016Beta_OTHPTDUSTADJ_PEC            $ROOT/NEI2016Beta/v2019-05/$MM/NEI2016Beta_0.1x0.1_2016$MM$DD_othptdustadj.nc          PEC           2016/1-12/1-31/$HH C xy  kg/m2/s  PEC    1007     7 50
0 NEI2016Beta_OTHPTDUSTADJ_POC            $ROOT/NEI2016Beta/v2019-05/$MM/NEI2016Beta_0.1x0.1_2016$MM$DD_othptdustadj.nc          POC           2016/1-12/1-31/$HH C xy  kg/m2/s  POC    1007     7 50
0 NEI2016Beta_OTHPTDUSTADJ_PAL            $ROOT/NEI2016Beta/v2019-05/$MM/NEI2016Beta_0.1x0.1_2016$MM$DD_othptdustadj.nc          PAL           2016/1-12/1-31/$HH C xy  kg/m2/s  PAL    1007     7 50
0 NEI2016Beta_OTHPTDUSTADJ_PCA            $ROOT/NEI2016Beta/v2019-05/$MM/NEI2016Beta_0.1x0.1_2016$MM$DD_othptdustadj.nc          PCA           2016/1-12/1-31/$HH C xy  kg/m2/s  PCA    1007     7 50
0 NEI2016Beta_OTHPTDUSTADJ_PCL            $ROOT/NEI2016Beta/v2019-05/$MM/NEI2016Beta_0.1x0.1_2016$MM$DD_othptdustadj.nc          PCL           2016/1-12/1-31/$HH C xy  kg/m2/s  PCL    1007     7 50
0 NEI2016Beta_OTHPTDUSTADJ_PFE            $ROOT/NEI2016Beta/v2019-05/$MM/NEI2016Beta_0.1x0.1_2016$MM$DD_othptdustadj.nc          PFE           2016/1-12/1-31/$HH C xy  kg/m2/s  PFE    1007     7 50
0 NEI2016Beta_OTHPTDUSTADJ_PH2O           $ROOT/NEI2016Beta/v2019-05/$MM/NEI2016Beta_0.1x0.1_2016$MM$DD_othptdustadj.nc          PH2O          2016/1-12/1-31/$HH C xy  kg/m2/s  PH2O   1007     7 50
0 NEI2016Beta_OTHPTDUSTADJ_PK             $ROOT/NEI2016Beta/v2019-05/$MM/NEI2016Beta_0.1x0.1_2016$MM$DD_othptdustadj.nc          PK            2016/1-12/1-31/$HH C xy  kg/m2/s  PK     1007     7 50
0 NEI2016Beta_OTHPTDUSTADJ_PMG            $ROOT/NEI2016Beta/v2019-05/$MM/NEI2016Beta_0.1x0.1_2016$MM$DD_othptdustadj.nc          PMG           2016/1-12/1-31/$HH C xy  kg/m2/s  PMG    1007     7 50
0 NEI2016Beta_OTHPTDUSTADJ_PMN            $ROOT/NEI2016Beta/v2019-05/$MM/NEI2016Beta_0.1x0.1_2016$MM$DD_othptdustadj.nc          PMN           2016/1-12/1-31/$HH C xy  kg/m2/s  PMN    1007     7 50
0 NEI2016Beta_OTHPTDUSTADJ_PMOTHR         $ROOT/NEI2016Beta/v2019-05/$MM/NEI2016Beta_0.1x0.1_2016$MM$DD_othptdustadj.nc          PMOTHR        2016/1-12/1-31/$HH C xy  kg/m2/s  PMOTHR 1007     7 50
0 NEI2016Beta_OTHPTDUSTADJ_PNA            $ROOT/NEI2016Beta/v2019-05/$MM/NEI2016Beta_0.1x0.1_2016$MM$DD_othptdustadj.nc          PNA           2016/1-12/1-31/$HH C xy  kg/m2/s  PNA    1007     7 50
0 NEI2016Beta_OTHPTDUSTADJ_PNCOM          $ROOT/NEI2016Beta/v2019-05/$MM/NEI2016Beta_0.1x0.1_2016$MM$DD_othptdustadj.nc          PNCOM         2016/1-12/1-31/$HH C xy  kg/m2/s  PNCOM  1007     7 50
0 NEI2016Beta_OTHPTDUSTADJ_PNH4           $ROOT/NEI2016Beta/v2019-05/$MM/NEI2016Beta_0.1x0.1_2016$MM$DD_othptdustadj.nc          PNH4          2016/1-12/1-31/$HH C xy  kg/m2/s  PNH4   1007     7 50
0 NEI2016Beta_OTHPTDUSTADJ_PNO3           $ROOT/NEI2016Beta/v2019-05/$MM/NEI2016Beta_0.1x0.1_2016$MM$DD_othptdustadj.nc          PNO3          2016/1-12/1-31/$HH C xy  kg/m2/s  PNO3   1007     7 50
0 NEI2016Beta_OTHPTDUSTADJ_PTI            $ROOT/NEI2016Beta/v2019-05/$MM/NEI2016Beta_0.1x0.1_2016$MM$DD_othptdustadj.nc          PTI           2016/1-12/1-31/$HH C xy  kg/m2/s  PTI    1007     7 50
0 NEI2016Beta_OTHPTDUSTADJ_PSI            $ROOT/NEI2016Beta/v2019-05/$MM/NEI2016Beta_0.1x0.1_2016$MM$DD_othptdustadj.nc          PSI           2016/1-12/1-31/$HH C xy  kg/m2/s  PSI    1007     7 50
0 NEI2016Beta_OTHPTDUSTADJ_PMC            $ROOT/NEI2016Beta/v2019-05/$MM/NEI2016Beta_0.1x0.1_2016$MM$DD_othptdustadj.nc          PMC           2016/1-12/1-31/$HH C xy  kg/m2/s  PMC    1007     7 50
0 NEI2016Beta_OTHPTDUSTADJ_PSO4           $ROOT/NEI2016Beta/v2019-05/$MM/NEI2016Beta_0.1x0.1_2016$MM$DD_othptdustadj.nc          PSO4          2016/1-12/1-31/$HH C xy  kg/m2/s  PSO4   1007     7 50

# SURFACE OTHAR INVENTORY
0 NEI2016Beta_OTHAR_CO             $ROOT/NEI2016Beta/v2019-05/$MM/NEI2016Beta_0.1x0.1_2016$MM$DD_othar.nc          CO            2016/1-12/1-31/$HH C xy  kg/m2/s  CO           1007     8 50
0 NEI2016Beta_OTHAR_SO2            $ROOT/NEI2016Beta/v2019-05/$MM/NEI2016Beta_0.1x0.1_2016$MM$DD_othar.nc          SO2           2016/1-12/1-31/$HH C xy  kg/m2/s  SO2          1007     8 50
0 NEI2016Beta_OTHAR_NO             $ROOT/NEI2016Beta/v2019-05/$MM/NEI2016Beta_0.1x0.1_2016$MM$DD_othar.nc          NO            2016/1-12/1-31/$HH C xy  kg/m2/s  NO           1007     8 50
0 NEI2016Beta_OTHAR_NO2            $ROOT/NEI2016Beta/v2019-05/$MM/NEI2016Beta_0.1x0.1_2016$MM$DD_othar.nc          NO2           2016/1-12/1-31/$HH C xy  kg/m2/s  NO2          1007     8 50
0 NEI2016Beta_OTHAR_HONO           $ROOT/NEI2016Beta/v2019-05/$MM/NEI2016Beta_0.1x0.1_2016$MM$DD_othar.nc          HONO          2016/1-12/1-31/$HH C xy  kg/m2/s  HONO         1007     8 50
0 NEI2016Beta_OTHAR_SULF           $ROOT/NEI2016Beta/v2019-05/$MM/NEI2016Beta_0.1x0.1_2016$MM$DD_othar.nc          SULF          2016/1-12/1-31/$HH C xy  kg/m2/s  SULF         1007     8 50
0 NEI2016Beta_OTHAR_NH3            $ROOT/NEI2016Beta/v2019-05/$MM/NEI2016Beta_0.1x0.1_2016$MM$DD_othar.nc          NH3           2016/1-12/1-31/$HH C xy  kg/m2/s  NH3          1007     8 50
0 NEI2016Beta_OTHAR_NH3_FERT       $ROOT/NEI2016Beta/v2019-05/$MM/NEI2016Beta_0.1x0.1_2016$MM$DD_othar.nc          NH3_FERT      2016/1-12/1-31/$HH C xy  kg/m2/s  NH3_FERT     1007     8 50
0 NEI2016Beta_OTHAR_CH4            $ROOT/NEI2016Beta/v2019-05/$MM/NEI2016Beta_0.1x0.1_2016$MM$DD_othar.nc          CH4           2016/1-12/1-31/$HH C xy  kg/m2/s  CH4          1007     8 50
0 NEI2016Beta_OTHAR_ETHY           $ROOT/NEI2016Beta/v2019-05/$MM/NEI2016Beta_0.1x0.1_2016$MM$DD_othar.nc          ETHY          2016/1-12/1-31/$HH C xy  kgC/m2/s ETHY         1007     8 50
0 NEI2016Beta_OTHAR_TERP           $ROOT/NEI2016Beta/v2019-05/$MM/NEI2016Beta_0.1x0.1_2016$MM$DD_othar.nc          TERP          2016/1-12/1-31/$HH C xy  kgC/m2/s TERP         1007     8 50
0 NEI2016Beta_OTHAR_FORM           $ROOT/NEI2016Beta/v2019-05/$MM/NEI2016Beta_0.1x0.1_2016$MM$DD_othar.nc          FORM          2016/1-12/1-31/$HH C xy  kgC/m2/s FORM         1007     8 50
0 NEI2016Beta_OTHAR_PAR            $ROOT/NEI2016Beta/v2019-05/$MM/NEI2016Beta_0.1x0.1_2016$MM$DD_othar.nc          PAR           2016/1-12/1-31/$HH C xy  kgC/m2/s PAR          1007     8 50
0 NEI2016Beta_OTHAR_IOLE           $ROOT/NEI2016Beta/v2019-05/$MM/NEI2016Beta_0.1x0.1_2016$MM$DD_othar.nc          IOLE          2016/1-12/1-31/$HH C xy  kgC/m2/s IOLE         1007     8 50
0 NEI2016Beta_OTHAR_OLE            $ROOT/NEI2016Beta/v2019-05/$MM/NEI2016Beta_0.1x0.1_2016$MM$DD_othar.nc          OLE           2016/1-12/1-31/$HH C xy  kgC/m2/s OLE          1007     8 50
0 NEI2016Beta_OTHAR_ETH            $ROOT/NEI2016Beta/v2019-05/$MM/NEI2016Beta_0.1x0.1_2016$MM$DD_othar.nc          ETH           2016/1-12/1-31/$HH C xy  kgC/m2/s ETH          1007     8 50
0 NEI2016Beta_OTHAR_ETHA           $ROOT/NEI2016Beta/v2019-05/$MM/NEI2016Beta_0.1x0.1_2016$MM$DD_othar.nc          ETHA          2016/1-12/1-31/$HH C xy  kgC/m2/s ETHA         1007     8 50
0 NEI2016Beta_OTHAR_ETOH           $ROOT/NEI2016Beta/v2019-05/$MM/NEI2016Beta_0.1x0.1_2016$MM$DD_othar.nc          ETOH          2016/1-12/1-31/$HH C xy  kgC/m2/s ETOH         1007     8 50
0 NEI2016Beta_OTHAR_MEOH           $ROOT/NEI2016Beta/v2019-05/$MM/NEI2016Beta_0.1x0.1_2016$MM$DD_othar.nc          MEOH          2016/1-12/1-31/$HH C xy  kgC/m2/s MEOH         1007     8 50
0 NEI2016Beta_OTHAR_BENZ           $ROOT/NEI2016Beta/v2019-05/$MM/NEI2016Beta_0.1x0.1_2016$MM$DD_othar.nc          BENZ          2016/1-12/1-31/$HH C xy  kgC/m2/s BENZ         1007     8 50
0 NEI2016Beta_OTHAR_TOL            $ROOT/NEI2016Beta/v2019-05/$MM/NEI2016Beta_0.1x0.1_2016$MM$DD_othar.nc          TOL           2016/1-12/1-31/$HH C xy  kgC/m2/s TOL          1007     8 50
0 NEI2016Beta_OTHAR_XYLMN          $ROOT/NEI2016Beta/v2019-05/$MM/NEI2016Beta_0.1x0.1_2016$MM$DD_othar.nc          XYLMN         2016/1-12/1-31/$HH C xy  kgC/m2/s XYLMN        1007     8 50
0 NEI2016Beta_OTHAR_NAPH           $ROOT/NEI2016Beta/v2019-05/$MM/NEI2016Beta_0.1x0.1_2016$MM$DD_othar.nc          NAPH          2016/1-12/1-31/$HH C xy  kgC/m2/s NAPH         1007     8 50
0 NEI2016Beta_OTHAR_ALD2           $ROOT/NEI2016Beta/v2019-05/$MM/NEI2016Beta_0.1x0.1_2016$MM$DD_othar.nc          ALD2          2016/1-12/1-31/$HH C xy  kgC/m2/s ALD2         1007     8 50
0 NEI2016Beta_OTHAR_ALDX           $ROOT/NEI2016Beta/v2019-05/$MM/NEI2016Beta_0.1x0.1_2016$MM$DD_othar.nc          ALDX          2016/1-12/1-31/$HH C xy  kgC/m2/s ALDX         1007     8 50
0 NEI2016Beta_OTHAR_ISOP           $ROOT/NEI2016Beta/v2019-05/$MM/NEI2016Beta_0.1x0.1_2016$MM$DD_othar.nc          ISOP          2016/1-12/1-31/$HH C xy  kgC/m2/s ISOP         1007     8 50
0 NEI2016Beta_OTHAR_PRPA           $ROOT/NEI2016Beta/v2019-05/$MM/NEI2016Beta_0.1x0.1_2016$MM$DD_othar.nc          PRPA          2016/1-12/1-31/$HH C xy  kgC/m2/s PRPA         1007     8 50
0 NEI2016Beta_OTHAR_ACET           $ROOT/NEI2016Beta/v2019-05/$MM/NEI2016Beta_0.1x0.1_2016$MM$DD_othar.nc          ACET          2016/1-12/1-31/$HH C xy  kgC/m2/s ACET         1007     8 50
0 NEI2016Beta_OTHAR_KET            $ROOT/NEI2016Beta/v2019-05/$MM/NEI2016Beta_0.1x0.1_2016$MM$DD_othar.nc          KET           2016/1-12/1-31/$HH C xy  kgC/m2/s KET          1007     8 50
0 NEI2016Beta_OTHAR_ALD2_PRIMARY   $ROOT/NEI2016Beta/v2019-05/$MM/NEI2016Beta_0.1x0.1_2016$MM$DD_othar.nc          ALD2_PRIMARY  2016/1-12/1-31/$HH C xy  kgC/m2/s ALD2_PRIMARY 1007     8 50
0 NEI2016Beta_OTHAR_FORM_PRIMARY   $ROOT/NEI2016Beta/v2019-05/$MM/NEI2016Beta_0.1x0.1_2016$MM$DD_othar.nc          FORM_PRIMARY  2016/1-12/1-31/$HH C xy  kgC/m2/s FORM_PRIMARY 1007     8 50
0 NEI2016Beta_OTHAR_SOAALK         $ROOT/NEI2016Beta/v2019-05/$MM/NEI2016Beta_0.1x0.1_2016$MM$DD_othar.nc          SOAALK        2016/1-12/1-31/$HH C xy  kgC/m2/s SOAALK       1007     8 50
0 NEI2016Beta_OTHAR_PEC            $ROOT/NEI2016Beta/v2019-05/$MM/NEI2016Beta_0.1x0.1_2016$MM$DD_othar.nc          PEC           2016/1-12/1-31/$HH C xy  kg/m2/s  PEC          1007     8 50
0 NEI2016Beta_OTHAR_POC            $ROOT/NEI2016Beta/v2019-05/$MM/NEI2016Beta_0.1x0.1_2016$MM$DD_othar.nc          POC           2016/1-12/1-31/$HH C xy  kg/m2/s  POC          1007     8 50
0 NEI2016Beta_OTHAR_PAL            $ROOT/NEI2016Beta/v2019-05/$MM/NEI2016Beta_0.1x0.1_2016$MM$DD_othar.nc          PAL           2016/1-12/1-31/$HH C xy  kg/m2/s  PAL          1007     8 50
0 NEI2016Beta_OTHAR_PCA            $ROOT/NEI2016Beta/v2019-05/$MM/NEI2016Beta_0.1x0.1_2016$MM$DD_othar.nc          PCA           2016/1-12/1-31/$HH C xy  kg/m2/s  PCA          1007     8 50
0 NEI2016Beta_OTHAR_PCL            $ROOT/NEI2016Beta/v2019-05/$MM/NEI2016Beta_0.1x0.1_2016$MM$DD_othar.nc          PCL           2016/1-12/1-31/$HH C xy  kg/m2/s  PCL          1007     8 50
0 NEI2016Beta_OTHAR_PFE            $ROOT/NEI2016Beta/v2019-05/$MM/NEI2016Beta_0.1x0.1_2016$MM$DD_othar.nc          PFE           2016/1-12/1-31/$HH C xy  kg/m2/s  PFE          1007     8 50
0 NEI2016Beta_OTHAR_PH2O           $ROOT/NEI2016Beta/v2019-05/$MM/NEI2016Beta_0.1x0.1_2016$MM$DD_othar.nc          PH2O          2016/1-12/1-31/$HH C xy  kg/m2/s  PH2O         1007     8 50
0 NEI2016Beta_OTHAR_PK             $ROOT/NEI2016Beta/v2019-05/$MM/NEI2016Beta_0.1x0.1_2016$MM$DD_othar.nc          PK            2016/1-12/1-31/$HH C xy  kg/m2/s  PK           1007     8 50
0 NEI2016Beta_OTHAR_PMG            $ROOT/NEI2016Beta/v2019-05/$MM/NEI2016Beta_0.1x0.1_2016$MM$DD_othar.nc          PMG           2016/1-12/1-31/$HH C xy  kg/m2/s  PMG          1007     8 50
0 NEI2016Beta_OTHAR_PMN            $ROOT/NEI2016Beta/v2019-05/$MM/NEI2016Beta_0.1x0.1_2016$MM$DD_othar.nc          PMN           2016/1-12/1-31/$HH C xy  kg/m2/s  PMN          1007     8 50
0 NEI2016Beta_OTHAR_PMOTHR         $ROOT/NEI2016Beta/v2019-05/$MM/NEI2016Beta_0.1x0.1_2016$MM$DD_othar.nc          PMOTHR        2016/1-12/1-31/$HH C xy  kg/m2/s  PMOTHR       1007     8 50
0 NEI2016Beta_OTHAR_PNA            $ROOT/NEI2016Beta/v2019-05/$MM/NEI2016Beta_0.1x0.1_2016$MM$DD_othar.nc          PNA           2016/1-12/1-31/$HH C xy  kg/m2/s  PNA          1007     8 50
0 NEI2016Beta_OTHAR_PNCOM          $ROOT/NEI2016Beta/v2019-05/$MM/NEI2016Beta_0.1x0.1_2016$MM$DD_othar.nc          PNCOM         2016/1-12/1-31/$HH C xy  kg/m2/s  PNCOM        1007     8 50
0 NEI2016Beta_OTHAR_PNH4           $ROOT/NEI2016Beta/v2019-05/$MM/NEI2016Beta_0.1x0.1_2016$MM$DD_othar.nc          PNH4          2016/1-12/1-31/$HH C xy  kg/m2/s  PNH4         1007     8 50
0 NEI2016Beta_OTHAR_PNO3           $ROOT/NEI2016Beta/v2019-05/$MM/NEI2016Beta_0.1x0.1_2016$MM$DD_othar.nc          PNO3          2016/1-12/1-31/$HH C xy  kg/m2/s  PNO3         1007     8 50
0 NEI2016Beta_OTHAR_PTI            $ROOT/NEI2016Beta/v2019-05/$MM/NEI2016Beta_0.1x0.1_2016$MM$DD_othar.nc          PTI           2016/1-12/1-31/$HH C xy  kg/m2/s  PTI          1007     8 50
0 NEI2016Beta_OTHAR_PSI            $ROOT/NEI2016Beta/v2019-05/$MM/NEI2016Beta_0.1x0.1_2016$MM$DD_othar.nc          PSI           2016/1-12/1-31/$HH C xy  kg/m2/s  PSI          1007     8 50
0 NEI2016Beta_OTHAR_PMC            $ROOT/NEI2016Beta/v2019-05/$MM/NEI2016Beta_0.1x0.1_2016$MM$DD_othar.nc          PMC           2016/1-12/1-31/$HH C xy  kg/m2/s  PMC          1007     8 50
0 NEI2016Beta_OTHAR_PSO4           $ROOT/NEI2016Beta/v2019-05/$MM/NEI2016Beta_0.1x0.1_2016$MM$DD_othar.nc          PSO4          2016/1-12/1-31/$HH C xy  kg/m2/s  PSO4         1007     8 50

# SURFACE RAIL INVENTORY
0 NEI2016Beta_RAIL_CO             $ROOT/NEI2016Beta/v2019-05/$MM/NEI2016Beta_0.1x0.1_2016$MM$DD_rail.nc          CO            2016/1-12/1-31/$HH C xy  kg/m2/s  CO           1007     9 50
0 NEI2016Beta_RAIL_SO2            $ROOT/NEI2016Beta/v2019-05/$MM/NEI2016Beta_0.1x0.1_2016$MM$DD_rail.nc          SO2           2016/1-12/1-31/$HH C xy  kg/m2/s  SO2          1007     9 50
0 NEI2016Beta_RAIL_NO             $ROOT/NEI2016Beta/v2019-05/$MM/NEI2016Beta_0.1x0.1_2016$MM$DD_rail.nc          NO            2016/1-12/1-31/$HH C xy  kg/m2/s  NO           1007     9 50
0 NEI2016Beta_RAIL_NO2            $ROOT/NEI2016Beta/v2019-05/$MM/NEI2016Beta_0.1x0.1_2016$MM$DD_rail.nc          NO2           2016/1-12/1-31/$HH C xy  kg/m2/s  NO2          1007     9 50
0 NEI2016Beta_RAIL_HONO           $ROOT/NEI2016Beta/v2019-05/$MM/NEI2016Beta_0.1x0.1_2016$MM$DD_rail.nc          HONO          2016/1-12/1-31/$HH C xy  kg/m2/s  HONO         1007     9 50
0 NEI2016Beta_RAIL_SULF           $ROOT/NEI2016Beta/v2019-05/$MM/NEI2016Beta_0.1x0.1_2016$MM$DD_rail.nc          SULF          2016/1-12/1-31/$HH C xy  kg/m2/s  SULF         1007     9 50
0 NEI2016Beta_RAIL_NH3            $ROOT/NEI2016Beta/v2019-05/$MM/NEI2016Beta_0.1x0.1_2016$MM$DD_rail.nc          NH3           2016/1-12/1-31/$HH C xy  kg/m2/s  NH3          1007     9 50
0 NEI2016Beta_RAIL_NH3_FERT       $ROOT/NEI2016Beta/v2019-05/$MM/NEI2016Beta_0.1x0.1_2016$MM$DD_rail.nc          NH3_FERT      2016/1-12/1-31/$HH C xy  kg/m2/s  NH3_FERT     1007     9 50
0 NEI2016Beta_RAIL_CH4            $ROOT/NEI2016Beta/v2019-05/$MM/NEI2016Beta_0.1x0.1_2016$MM$DD_rail.nc          CH4           2016/1-12/1-31/$HH C xy  kg/m2/s  CH4          1007     9 50
0 NEI2016Beta_RAIL_ACROLEIN       $ROOT/NEI2016Beta/v2019-05/$MM/NEI2016Beta_0.1x0.1_2016$MM$DD_rail.nc          ACROLEIN      2016/1-12/1-31/$HH C xy  kgC/m2/s ACROLEIN     1007     9 50
0 NEI2016Beta_RAIL_BUTADIENE13    $ROOT/NEI2016Beta/v2019-05/$MM/NEI2016Beta_0.1x0.1_2016$MM$DD_rail.nc          BUTADIENE13   2016/1-12/1-31/$HH C xy  kgC/m2/s BUTADIENE13  1007     9 50
0 NEI2016Beta_RAIL_ETHY           $ROOT/NEI2016Beta/v2019-05/$MM/NEI2016Beta_0.1x0.1_2016$MM$DD_rail.nc          ETHY          2016/1-12/1-31/$HH C xy  kgC/m2/s ETHY         1007     9 50
0 NEI2016Beta_RAIL_TERP           $ROOT/NEI2016Beta/v2019-05/$MM/NEI2016Beta_0.1x0.1_2016$MM$DD_rail.nc          TERP          2016/1-12/1-31/$HH C xy  kgC/m2/s TERP         1007     9 50
0 NEI2016Beta_RAIL_FORM           $ROOT/NEI2016Beta/v2019-05/$MM/NEI2016Beta_0.1x0.1_2016$MM$DD_rail.nc          FORM          2016/1-12/1-31/$HH C xy  kgC/m2/s FORM         1007     9 50
0 NEI2016Beta_RAIL_PAR            $ROOT/NEI2016Beta/v2019-05/$MM/NEI2016Beta_0.1x0.1_2016$MM$DD_rail.nc          PAR           2016/1-12/1-31/$HH C xy  kgC/m2/s PAR          1007     9 50
0 NEI2016Beta_RAIL_IOLE           $ROOT/NEI2016Beta/v2019-05/$MM/NEI2016Beta_0.1x0.1_2016$MM$DD_rail.nc          IOLE          2016/1-12/1-31/$HH C xy  kgC/m2/s IOLE         1007     9 50
0 NEI2016Beta_RAIL_OLE            $ROOT/NEI2016Beta/v2019-05/$MM/NEI2016Beta_0.1x0.1_2016$MM$DD_rail.nc          OLE           2016/1-12/1-31/$HH C xy  kgC/m2/s OLE          1007     9 50
0 NEI2016Beta_RAIL_ETH            $ROOT/NEI2016Beta/v2019-05/$MM/NEI2016Beta_0.1x0.1_2016$MM$DD_rail.nc          ETH           2016/1-12/1-31/$HH C xy  kgC/m2/s ETH          1007     9 50
0 NEI2016Beta_RAIL_ETHA           $ROOT/NEI2016Beta/v2019-05/$MM/NEI2016Beta_0.1x0.1_2016$MM$DD_rail.nc          ETHA          2016/1-12/1-31/$HH C xy  kgC/m2/s ETHA         1007     9 50
0 NEI2016Beta_RAIL_ETOH           $ROOT/NEI2016Beta/v2019-05/$MM/NEI2016Beta_0.1x0.1_2016$MM$DD_rail.nc          ETOH          2016/1-12/1-31/$HH C xy  kgC/m2/s ETOH         1007     9 50
0 NEI2016Beta_RAIL_MEOH           $ROOT/NEI2016Beta/v2019-05/$MM/NEI2016Beta_0.1x0.1_2016$MM$DD_rail.nc          MEOH          2016/1-12/1-31/$HH C xy  kgC/m2/s MEOH         1007     9 50
0 NEI2016Beta_RAIL_BENZ           $ROOT/NEI2016Beta/v2019-05/$MM/NEI2016Beta_0.1x0.1_2016$MM$DD_rail.nc          BENZ          2016/1-12/1-31/$HH C xy  kgC/m2/s BENZ         1007     9 50
0 NEI2016Beta_RAIL_TOL            $ROOT/NEI2016Beta/v2019-05/$MM/NEI2016Beta_0.1x0.1_2016$MM$DD_rail.nc          TOL           2016/1-12/1-31/$HH C xy  kgC/m2/s TOL          1007     9 50
0 NEI2016Beta_RAIL_XYLMN          $ROOT/NEI2016Beta/v2019-05/$MM/NEI2016Beta_0.1x0.1_2016$MM$DD_rail.nc          XYLMN         2016/1-12/1-31/$HH C xy  kgC/m2/s XYLMN        1007     9 50
0 NEI2016Beta_RAIL_NAPH           $ROOT/NEI2016Beta/v2019-05/$MM/NEI2016Beta_0.1x0.1_2016$MM$DD_rail.nc          NAPH          2016/1-12/1-31/$HH C xy  kgC/m2/s NAPH         1007     9 50
0 NEI2016Beta_RAIL_ALD2           $ROOT/NEI2016Beta/v2019-05/$MM/NEI2016Beta_0.1x0.1_2016$MM$DD_rail.nc          ALD2          2016/1-12/1-31/$HH C xy  kgC/m2/s ALD2         1007     9 50
0 NEI2016Beta_RAIL_ALDX           $ROOT/NEI2016Beta/v2019-05/$MM/NEI2016Beta_0.1x0.1_2016$MM$DD_rail.nc          ALDX          2016/1-12/1-31/$HH C xy  kgC/m2/s ALDX         1007     9 50
0 NEI2016Beta_RAIL_ISOP           $ROOT/NEI2016Beta/v2019-05/$MM/NEI2016Beta_0.1x0.1_2016$MM$DD_rail.nc          ISOP          2016/1-12/1-31/$HH C xy  kgC/m2/s ISOP         1007     9 50
0 NEI2016Beta_RAIL_PRPA           $ROOT/NEI2016Beta/v2019-05/$MM/NEI2016Beta_0.1x0.1_2016$MM$DD_rail.nc          PRPA          2016/1-12/1-31/$HH C xy  kgC/m2/s PRPA         1007     9 50
0 NEI2016Beta_RAIL_ACET           $ROOT/NEI2016Beta/v2019-05/$MM/NEI2016Beta_0.1x0.1_2016$MM$DD_rail.nc          ACET          2016/1-12/1-31/$HH C xy  kgC/m2/s ACET         1007     9 50
0 NEI2016Beta_RAIL_KET            $ROOT/NEI2016Beta/v2019-05/$MM/NEI2016Beta_0.1x0.1_2016$MM$DD_rail.nc          KET           2016/1-12/1-31/$HH C xy  kgC/m2/s KET          1007     9 50
0 NEI2016Beta_RAIL_ALD2_PRIMARY   $ROOT/NEI2016Beta/v2019-05/$MM/NEI2016Beta_0.1x0.1_2016$MM$DD_rail.nc          ALD2_PRIMARY  2016/1-12/1-31/$HH C xy  kgC/m2/s ALD2_PRIMARY 1007     9 50
0 NEI2016Beta_RAIL_FORM_PRIMARY   $ROOT/NEI2016Beta/v2019-05/$MM/NEI2016Beta_0.1x0.1_2016$MM$DD_rail.nc          FORM_PRIMARY  2016/1-12/1-31/$HH C xy  kgC/m2/s FORM_PRIMARY 1007     9 50
0 NEI2016Beta_RAIL_SOAALK         $ROOT/NEI2016Beta/v2019-05/$MM/NEI2016Beta_0.1x0.1_2016$MM$DD_rail.nc          SOAALK        2016/1-12/1-31/$HH C xy  kgC/m2/s SOAALK       1007     9 50
0 NEI2016Beta_RAIL_PEC            $ROOT/NEI2016Beta/v2019-05/$MM/NEI2016Beta_0.1x0.1_2016$MM$DD_rail.nc          PEC           2016/1-12/1-31/$HH C xy  kg/m2/s  PEC          1007     9 50
0 NEI2016Beta_RAIL_POC            $ROOT/NEI2016Beta/v2019-05/$MM/NEI2016Beta_0.1x0.1_2016$MM$DD_rail.nc          POC           2016/1-12/1-31/$HH C xy  kg/m2/s  POC          1007     9 50
0 NEI2016Beta_RAIL_PAL            $ROOT/NEI2016Beta/v2019-05/$MM/NEI2016Beta_0.1x0.1_2016$MM$DD_rail.nc          PAL           2016/1-12/1-31/$HH C xy  kg/m2/s  PAL          1007     9 50
0 NEI2016Beta_RAIL_PCA            $ROOT/NEI2016Beta/v2019-05/$MM/NEI2016Beta_0.1x0.1_2016$MM$DD_rail.nc          PCA           2016/1-12/1-31/$HH C xy  kg/m2/s  PCA          1007     9 50
0 NEI2016Beta_RAIL_PCL            $ROOT/NEI2016Beta/v2019-05/$MM/NEI2016Beta_0.1x0.1_2016$MM$DD_rail.nc          PCL           2016/1-12/1-31/$HH C xy  kg/m2/s  PCL          1007     9 50
0 NEI2016Beta_RAIL_PFE            $ROOT/NEI2016Beta/v2019-05/$MM/NEI2016Beta_0.1x0.1_2016$MM$DD_rail.nc          PFE           2016/1-12/1-31/$HH C xy  kg/m2/s  PFE          1007     9 50
0 NEI2016Beta_RAIL_PH2O           $ROOT/NEI2016Beta/v2019-05/$MM/NEI2016Beta_0.1x0.1_2016$MM$DD_rail.nc          PH2O          2016/1-12/1-31/$HH C xy  kg/m2/s  PH2O         1007     9 50
0 NEI2016Beta_RAIL_PK             $ROOT/NEI2016Beta/v2019-05/$MM/NEI2016Beta_0.1x0.1_2016$MM$DD_rail.nc          PK            2016/1-12/1-31/$HH C xy  kg/m2/s  PK           1007     9 50
0 NEI2016Beta_RAIL_PMG            $ROOT/NEI2016Beta/v2019-05/$MM/NEI2016Beta_0.1x0.1_2016$MM$DD_rail.nc          PMG           2016/1-12/1-31/$HH C xy  kg/m2/s  PMG          1007     9 50
0 NEI2016Beta_RAIL_PMN            $ROOT/NEI2016Beta/v2019-05/$MM/NEI2016Beta_0.1x0.1_2016$MM$DD_rail.nc          PMN           2016/1-12/1-31/$HH C xy  kg/m2/s  PMN          1007     9 50
0 NEI2016Beta_RAIL_PMOTHR         $ROOT/NEI2016Beta/v2019-05/$MM/NEI2016Beta_0.1x0.1_2016$MM$DD_rail.nc          PMOTHR        2016/1-12/1-31/$HH C xy  kg/m2/s  PMOTHR       1007     9 50
0 NEI2016Beta_RAIL_PNA            $ROOT/NEI2016Beta/v2019-05/$MM/NEI2016Beta_0.1x0.1_2016$MM$DD_rail.nc          PNA           2016/1-12/1-31/$HH C xy  kg/m2/s  PNA          1007     9 50
0 NEI2016Beta_RAIL_PNCOM          $ROOT/NEI2016Beta/v2019-05/$MM/NEI2016Beta_0.1x0.1_2016$MM$DD_rail.nc          PNCOM         2016/1-12/1-31/$HH C xy  kg/m2/s  PNCOM        1007     9 50
0 NEI2016Beta_RAIL_PNH4           $ROOT/NEI2016Beta/v2019-05/$MM/NEI2016Beta_0.1x0.1_2016$MM$DD_rail.nc          PNH4          2016/1-12/1-31/$HH C xy  kg/m2/s  PNH4         1007     9 50
0 NEI2016Beta_RAIL_PNO3           $ROOT/NEI2016Beta/v2019-05/$MM/NEI2016Beta_0.1x0.1_2016$MM$DD_rail.nc          PNO3          2016/1-12/1-31/$HH C xy  kg/m2/s  PNO3         1007     9 50
0 NEI2016Beta_RAIL_PTI            $ROOT/NEI2016Beta/v2019-05/$MM/NEI2016Beta_0.1x0.1_2016$MM$DD_rail.nc          PTI           2016/1-12/1-31/$HH C xy  kg/m2/s  PTI          1007     9 50
0 NEI2016Beta_RAIL_PSI            $ROOT/NEI2016Beta/v2019-05/$MM/NEI2016Beta_0.1x0.1_2016$MM$DD_rail.nc          PSI           2016/1-12/1-31/$HH C xy  kg/m2/s  PSI          1007     9 50
0 NEI2016Beta_RAIL_PMC            $ROOT/NEI2016Beta/v2019-05/$MM/NEI2016Beta_0.1x0.1_2016$MM$DD_rail.nc          PMC           2016/1-12/1-31/$HH C xy  kg/m2/s  PMC          1007     9 50
0 NEI2016Beta_RAIL_PSO4           $ROOT/NEI2016Beta/v2019-05/$MM/NEI2016Beta_0.1x0.1_2016$MM$DD_rail.nc          PSO4          2016/1-12/1-31/$HH C xy  kg/m2/s  PSO4         1007     9 50

# SURFACE PTOILGAS INVENTORY
0 NEI2016Beta_PTOILGAS_CO             $ROOT/NEI2016Beta/v2019-05/$MM/NEI2016Beta_0.1x0.1_2016$MM$DD_ptoilgas.nc          CO            2016/1-12/1-31/$HH C xy  kg/m2/s  CO           1007     10 50
0 NEI2016Beta_PTOILGAS_SO2            $ROOT/NEI2016Beta/v2019-05/$MM/NEI2016Beta_0.1x0.1_2016$MM$DD_ptoilgas.nc          SO2           2016/1-12/1-31/$HH C xy  kg/m2/s  SO2          1007     10 50
0 NEI2016Beta_PTOILGAS_NO             $ROOT/NEI2016Beta/v2019-05/$MM/NEI2016Beta_0.1x0.1_2016$MM$DD_ptoilgas.nc          NO            2016/1-12/1-31/$HH C xy  kg/m2/s  NO           1007     10 50
0 NEI2016Beta_PTOILGAS_NO2            $ROOT/NEI2016Beta/v2019-05/$MM/NEI2016Beta_0.1x0.1_2016$MM$DD_ptoilgas.nc          NO2           2016/1-12/1-31/$HH C xy  kg/m2/s  NO2          1007     10 50
0 NEI2016Beta_PTOILGAS_HCL            $ROOT/NEI2016Beta/v2019-05/$MM/NEI2016Beta_0.1x0.1_2016$MM$DD_ptoilgas.nc          HCL           2016/1-12/1-31/$HH C xy  kg/m2/s  HCL          1007     10 50
0 NEI2016Beta_PTOILGAS_CL2            $ROOT/NEI2016Beta/v2019-05/$MM/NEI2016Beta_0.1x0.1_2016$MM$DD_ptoilgas.nc          CL2           2016/1-12/1-31/$HH C xy  kg/m2/s  CL2          1007     10 50
0 NEI2016Beta_PTOILGAS_HONO           $ROOT/NEI2016Beta/v2019-05/$MM/NEI2016Beta_0.1x0.1_2016$MM$DD_ptoilgas.nc          HONO          2016/1-12/1-31/$HH C xy  kg/m2/s  HONO         1007     10 50
0 NEI2016Beta_PTOILGAS_SULF           $ROOT/NEI2016Beta/v2019-05/$MM/NEI2016Beta_0.1x0.1_2016$MM$DD_ptoilgas.nc          SULF          2016/1-12/1-31/$HH C xy  kg/m2/s  SULF         1007     10 50
0 NEI2016Beta_PTOILGAS_NH3            $ROOT/NEI2016Beta/v2019-05/$MM/NEI2016Beta_0.1x0.1_2016$MM$DD_ptoilgas.nc          NH3           2016/1-12/1-31/$HH C xy  kg/m2/s  NH3          1007     10 50
0 NEI2016Beta_PTOILGAS_NH3_FERT       $ROOT/NEI2016Beta/v2019-05/$MM/NEI2016Beta_0.1x0.1_2016$MM$DD_ptoilgas.nc          NH3_FERT      2016/1-12/1-31/$HH C xy  kg/m2/s  NH3_FERT     1007     10 50
0 NEI2016Beta_PTOILGAS_CH4            $ROOT/NEI2016Beta/v2019-05/$MM/NEI2016Beta_0.1x0.1_2016$MM$DD_ptoilgas.nc          CH4           2016/1-12/1-31/$HH C xy  kg/m2/s  CH4          1007     10 50
0 NEI2016Beta_PTOILGAS_ACROLEIN       $ROOT/NEI2016Beta/v2019-05/$MM/NEI2016Beta_0.1x0.1_2016$MM$DD_ptoilgas.nc          ACROLEIN      2016/1-12/1-31/$HH C xy  kgC/m2/s ACROLEIN     1007     10 50
0 NEI2016Beta_PTOILGAS_BUTADIENE13    $ROOT/NEI2016Beta/v2019-05/$MM/NEI2016Beta_0.1x0.1_2016$MM$DD_ptoilgas.nc          BUTADIENE13   2016/1-12/1-31/$HH C xy  kgC/m2/s BUTADIENE13  1007     10 50
0 NEI2016Beta_PTOILGAS_ETHY           $ROOT/NEI2016Beta/v2019-05/$MM/NEI2016Beta_0.1x0.1_2016$MM$DD_ptoilgas.nc          ETHY          2016/1-12/1-31/$HH C xy  kgC/m2/s ETHY         1007     10 50
0 NEI2016Beta_PTOILGAS_TERP           $ROOT/NEI2016Beta/v2019-05/$MM/NEI2016Beta_0.1x0.1_2016$MM$DD_ptoilgas.nc          TERP          2016/1-12/1-31/$HH C xy  kgC/m2/s TERP         1007     10 50
[...]
0 NEI2016Beta_C12MARINE_C2H4  $ROOT/NEI2016Beta/v2019-05-MM/$MM/NEI2016v1_0.1x0.1_2016$MM_cmv_c1c2_12_monmean.nc ETH       2016/1-12/1/0 C xyz kgC/m2/s C2H4 254/1007     9 50
0 NEI2016Beta_C12MARINE_C2H6  $ROOT/NEI2016Beta/v2019-05-MM/$MM/NEI2016v1_0.1x0.1_2016$MM_cmv_c1c2_12_monmean.nc ETHA      2016/1-12/1/0 C xyz kgC/m2/s C2H6 254/1007     9 50
0 NEI2016Beta_C12MARINE_ALD2  $ROOT/NEI2016Beta/v2019-05-MM/$MM/NEI2016v1_0.1x0.1_2016$MM_cmv_c1c2_12_monmean.nc ALD2      2016/1-12/1/0 C xyz kgC/m2/s ALD2 254/1007     9 50
)))NEI2016Beta_SHIP


)))SHIP

###############################################################################
### NON-EMISSIONS DATA (subsection of BASE EMISSIONS SECTION)
###
### Non-emissions data. The following fields are read through HEMCO but do 
### not contain emissions data. The extension number is set to wildcard 
### character denoting that these fields will not be considered for emission 
### calculation. A given entry is only read if the assigned species name is 
### an HEMCO species.
###############################################################################

#==============================================================================
# --- Time zones (offset to UTC) ---
#==============================================================================
* TIMEZONES $ROOT/TIMEZONES/v2015-02/timezones_1x1.nc UTC_OFFSET 2000/1/1/0 C xy count * - 1 1

### END SECTION BASE EMISSIONS ###

###############################################################################
### BEGIN SECTION SCALE FACTORS 
###############################################################################

# ScalID Name sourceFile sourceVar sourceTime C/R/E SrcDim SrcUnit Oper

#==============================================================================
# --- annual scale factors ---
#==============================================================================
1  TOTFUEL_THISYR    $ROOT/AnnualScalar/v2014-07/AnnualScalar.geos.1x1.nc NOxscalar 1985-2010/1/1/0 C xy 1  1
2  TOTFUEL_1985      $ROOT/AnnualScalar/v2014-07/AnnualScalar.geos.1x1.nc NOxscalar 1985/1/1/0      C xy 1 -1
3  TOTFUEL_1999      $ROOT/AnnualScalar/v2014-07/AnnualScalar.geos.1x1.nc NOxscalar 1999/1/1/0      C xy 1 -1
4  TOTFUEL_2006      $ROOT/AnnualScalar/v2014-07/AnnualScalar.geos.1x1.nc NOxscalar 2006/1/1/0      C xy 1 -1
5  TOTFUEL_2002      $ROOT/AnnualScalar/v2014-07/AnnualScalar.geos.1x1.nc NOxscalar 2002/1/1/0      C xy 1 -1
16 TOTFUEL_2005      $ROOT/AnnualScalar/v2014-07/AnnualScalar.geos.1x1.nc NOxscalar 2005/1/1/0      C xy 1 -1
27 TOTFUEL_2008_2010 $ROOT/AnnualScalar/v2014-07/AnnualScalar.geos.1x1.nc NOxscalar 2008-2010/1/1/0 C xy 1 -1
40 TOTFUEL_1985_2008 $ROOT/AnnualScalar/v2014-07/AnnualScalar.geos.1x1.nc NOxscalar 1985-2008/1/1/0 C xy 1 -1
6  LIQFUEL_THISYR    $ROOT/AnnualScalar/v2014-07/AnnualScalar.geos.1x1.nc COscalar  1985-2010/1/1/0 C xy 1  1
7  LIQFUEL_1985      $ROOT/AnnualScalar/v2014-07/AnnualScalar.geos.1x1.nc COscalar  1985/1/1/0      C xy 1 -1
8  LIQFUEL_1999      $ROOT/AnnualScalar/v2014-07/AnnualScalar.geos.1x1.nc COscalar  1999/1/1/0      C xy 1 -1
9  LIQFUEL_2006      $ROOT/AnnualScalar/v2014-07/AnnualScalar.geos.1x1.nc COscalar  2006/1/1/0      C xy 1 -1
10 LIQFUEL_2002      $ROOT/AnnualScalar/v2014-07/AnnualScalar.geos.1x1.nc COscalar  2002/1/1/0      C xy 1 -1
17 LIQFUEL_2005      $ROOT/AnnualScalar/v2014-07/AnnualScalar.geos.1x1.nc COscalar  2005/1/1/0      C xy 1 -1
28 LIQFUEL_2008_2010 $ROOT/AnnualScalar/v2014-07/AnnualScalar.geos.1x1.nc COscalar  2008-2010/1/1/0 C xy 1 -1
41 LIQFUEL_1985_2008 $ROOT/AnnualScalar/v2014-07/AnnualScalar.geos.1x1.nc COscalar  1985-2008/1/1/0 C xy 1 -1
11 SOLFUEL_THISYR    $ROOT/AnnualScalar/v2014-07/AnnualScalar.geos.1x1.nc SO2scalar 1985-2010/1/1/0 C xy 1  1
12 SOLFUEL_1985      $ROOT/AnnualScalar/v2014-07/AnnualScalar.geos.1x1.nc SO2scalar 1985/1/1/0      C xy 1 -1
13 SOLFUEL_1999      $ROOT/AnnualScalar/v2014-07/AnnualScalar.geos.1x1.nc SO2scalar 1999/1/1/0      C xy 1 -1
14 SOLFUEL_2006      $ROOT/AnnualScalar/v2014-07/AnnualScalar.geos.1x1.nc SO2scalar 2006/1/1/0      C xy 1 -1
15 SOLFUEL_2002      $ROOT/AnnualScalar/v2014-07/AnnualScalar.geos.1x1.nc SO2scalar 2002/1/1/0      C xy 1 -1
18 SOLFUEL_2005      $ROOT/AnnualScalar/v2014-07/AnnualScalar.geos.1x1.nc SO2scalar 2005/1/1/0      C xy 1 -1
19 SOLFUEL_2008      $ROOT/AnnualScalar/v2014-07/AnnualScalar.geos.1x1.nc SO2scalar 2008/1/1/0      C xy 1 -1
29 SOLFUEL_2008_2010 $ROOT/AnnualScalar/v2014-07/AnnualScalar.geos.1x1.nc SO2scalar 2008-2010/1/1/0 C xy 1 -1
42 SOLFUEL_1985_2008 $ROOT/AnnualScalar/v2014-07/AnnualScalar.geos.1x1.nc SO2scalar 1985-2008/1/1/0 C xy 1 -1
23 LIQFUEL_2008      $ROOT/AnnualScalar/v2014-07/AnnualScalar.geos.1x1.nc COscalar  2008/1/1/0      C xy 1 -1
24 TOTFUEL_2008      $ROOT/AnnualScalar/v2014-07/AnnualScalar.geos.1x1.nc NOxscalar 2008/1/1/0      C xy 1 -1

#==============================================================================
# --- temporary scale factors for comparisons
#==============================================================================
919 NO_ratio $ROOT/AnnualScalar/v2014-07/NO_ratio_2005_2002.nc NOXscalar 2005/1/1/0 C xy unitless 1
918 CO_ratio $ROOT/AnnualScalar/v2014-07/CO_ratio_2005_1985.nc COscalar 2005/1/1/0 C xy unitless 1

#==============================================================================
# --- day-of-week scale factors ---
# ==> data is Sun/Mon/.../Sat 
#==============================================================================
20 GEIA_DOW_NOX 0.784/1.0706/1.0706/1.0706/1.0706/1.0706/0.863 - - - xy unitless 1
21 GEIA_DOW_CO  0.683/1.1076/1.0706/1.0706/1.0706/1.0706/0.779 - - - xy unitless 1
22 GEIA_DOW_HC  0.671/1.1102/1.1102/1.1102/1.1102/1.1102/0.768 - - - xy unitless 1 

#==============================================================================
# --- diurnal scale factors --- 
#==============================================================================
25 EDGAR_TODNOX $ROOT/EDGARv42/v2015-02/NO/EDGAR_hourly_NOxScal.nc NOXscale 2000/1/1/HH C xy unitless 1
26 GEIA_TOD_FOSSIL 0.45/0.45/0.6/0.6/0.6/0.6/1.45/1.45/1.45/1.45/1.4/1.4/1.4/1.4/1.45/1.45/1.45/1.45/0.65/0.65/0.65/0.65/0.45/0.45 - - - xy unitless 1

#==============================================================================
# --- seasonal scale factors ---
#==============================================================================
# from GEIA:
30 GEIA_SEASON_NOX  $ROOT/GEIA/v2014-07/GEIA_monthscal.generic.1x1.nc NOXrat 1985/1-12/1/0 C xy unitless 1
31 GEIA_SEASON_SO2  $ROOT/GEIA/v2014-07/GEIA_monthscal.generic.1x1.nc SO2rat 1985/1-12/1/0 C xy unitless 1

# from EMEP:
32 EMEP_SEASON_NOX $ROOT/EMEP/v2019-05/EMEP.Seasonal.geos.1x1.nc NOXrat 2005/1-12/1/0 C xy unitless 1
33 EMEP_SEASON_CO  $ROOT/EMEP/v2019-05/EMEP.Seasonal.geos.1x1.nc COrat  2005/1-12/1/0 C xy unitless 1
34 EMEP_SEASON_NH3 $ROOT/EMEP/v2019-05/EMEP.Seasonal.geos.1x1.nc NH3rat 2005/1-12/1/0 C xy unitless 1
35 EMEP_SEASON_SO2 $ROOT/EMEP/v2019-05/EMEP.Seasonal.geos.1x1.nc SO2rat 2005/1-12/1/0 C xy unitless 1

# from Streets:
36 ZHANG_SEASON_NOX   $ROOT/STREETS/v2014-07/2006/Streets_2004_NOx_MonthFctr_total.generic.1x1.nc NOxrat    2004/1-12/1/0 C xy unitless 1
37 ZHANG_SEASON_CO    $ROOT/STREETS/v2014-07/2006/Streets_2001_CO_MonthFctr_total.generic.1x1.nc  ratio     2001/1-12/1/0 C xy unitless 1 
38 STREETS_SEASON_NH3 $ROOT/STREETS/v2014-07/2000/Streets_NH3_scale.generic.1x1.nc                NH3_scale 1995/1-12/1/0 C xy unitless 1 

# for Bromocarbons:
39 BROMOCARB_SEASON $ROOT/BROMINE/v2015-02/BromoCarb_Season.nc CHXBRY_scale 2000/1-12/1/0 C xy unitless 1

#==============================================================================
# --- VOC speciations ---
#==============================================================================

50 RETRO_KET2MEK    0.25  - - - xy unitless 1
51 RETRO_KET2ACET   0.75  - - - xy unitless 1
52 COPROD_FOSSIL    1.02  - - - xy unitless 1
53 COPROD_BIOFUEL   1.086 - - - xy unitless 1
54 COPROD_BIOMASS   1.05  - - - xy unitless 1
55 ACETSCAL_FOSSIL  0.82  - - - xy unitless 1
56 ACETSCAL_BIOFUEL 0.82  - - - xy unitless 1

#==============================================================================
# --- SOx to SO2 conversion (Chin et al., 2000) ---
#==============================================================================
60 SOX2SO2_GLOBAL 0.986 - - - xy unitless 1
61 SOX2SO2_EU     0.95  - - - xy unitless 1
62 SULFUR2SOX     2.0   - - - xy unitless 1
63 SO2toSO4       0.031 - - - xy unitless 1
64 SOX2SO4_EU     0.05  - - - xy unitless 1
65 SO2toSO4_CAC   0.014 - - - xy unitless 1

#==============================================================================
# --- Carbon aerosols: speciation of hydrophilic and hydrophobic fractions ---
#
# Fractions applied to the biomass burning extensions (GFED3 or FINN) are
# specified separately in the extensions section.
#==============================================================================
70 BC2BCPI  0.2  - - - xy unitless 1
71 BC2BCPO  0.8  - - - xy unitless 1
72 OC2OCPI  0.5  - - - xy unitless 1
73 OC2OCPO  0.5  - - - xy unitless 1
74 POASCAL  1.27 - - - xy unitless 1

#==============================================================================
# --- QFED2 diurnal scale factors ---
#
# Fire diurnal scaling factors (% per hour) from WRAP Report to Project
# No. 178-6, July 2005
#==============================================================================
75 QFED2_TOD 0.1392/0.1392/0.1368/0.1368/0.1368/0.1368/0.1368/0.1368/0.1368/0.48/0.96/1.68/2.4/3.12/3.84/4.08/2.88/1.68/0.96/0.1368/0.1368/0.1368/0.1368/0.1368 - - - xy unitless 1

#==============================================================================
# --- NAP scale factors ---
#
# Get anthropogenic (FF) NAP emissions by scaling BENZ emissions with the
# following factor. Factor is ratio of TgC NAP to TgC BENZ emissions
# or equivalently, molec C NAP to molec C BENZ. Scaling should produce
# about 0.09 TgC NAP/year, consistent with non-BB,BF emissions predicted
# by Zhang and Tao 2009 Atm Env
# Based on year 2000 1x1 inv  (hotp 11/14/09)
#REAL*8, PARAMETER    :: NAPTOBENZSCALE = 0.06861d0

# NAPTOTSCAL: factor to scale total NAP emissions to POA (hotp 7/24/09)
#REAL*8, PARAMETER    :: NAPTOTALSCALE = 66.09027d0
 
# = CO emissions * emissions ratio of mol NAP / mol CO 
# * kg C / mol NAP * mol CO / kg CO 
# mmol NAP / mol CO = 0.025 g NAP/ kg DM / 
#              ( 78 g CO/ kg DM ) * 28 g CO / mol CO
#            / ( 128 g NAP / mol NAP ) *1000 mmol/mol
# scale emissions down if appropriate to remove the
# effect of VOC ox on CO emission
# EF for NAP from Andreae and Merlet 2001 Glob Biog Cyc
# EF for CO  from Andreae and Merlet 2001 Glob Biog Cyc
#BIOFUEL_KG(N,:,:) = BIOFUEL_KG(IDBFCO,:,:) * 0.0701d-3 
#                  * 120d0 / 28d0 * COSCALEDOWN
#==============================================================================
80 NAPEMISS   1.0     - - - xy unitless 1
81 NAPTOTSCAL 66.09   - - - xy unitless 1
82 BENZTONAP  6.86e-2 - - - xy unitless 1 
83 BF_COtoNAP 3.00e-4 - - - xy unitless 1

#==============================================================================
# --- Biofuel conversion factors ---
#==============================================================================
90 BF_COtoHAC   8.75e-3 - - - xy unitless 1
91 BF_COtoSO2   3.43e-3 - - - xy unitless 1
92 BF_COtoGLYX  1.37e-2 - - - xy unitless 1
93 BF_COtoMGLY  8.92e-3 - - - xy unitless 1
94 BF_COtoBENZ  1.04e-2 - - - xy unitless 1
95 BF_COtoTOLU  6.03e-3 - - - xy unitless 1
96 BF_COtoXYLE  2.81e-2 - - - xy unitless 1
97 BF_COtoC2H4  1.35e-2 - - - xy unitless 1
98 BF_COtoC2H2  1.63e-2 - - - xy unitless 1
99 BF_COtoGLYC  7.84e-3 - - - xy unitless 1

#==============================================================================
# --- AEIC aircraft emissions ---
#
# Sulfur conversion factors are calculated as 
#     so4 = 3 * a * b and so2 = 2 * a * (1-b)
#
# where 
#     a = fraction by mass (6.0e-4) and 
#     b = conversion efficiency (2.0e-2).
#
# The factors 2 and 3 come from sulfur mass conversions (96/32 and 64/32).
# All factors are taken from AEIC_mod.F, following Seb Estham's appraoch.
# Note that all emissions become multiplied by a factor of 1e-3 (except for 
# the fuelburn emissions) in the original AEIC code. I'm not sure if this 
# is because the netCDF data is in g instead of kg?
#==============================================================================
101 AEICACET 3.693477e-3 - -  - xy unitless 1
102 AEICALD2 4.271822e-2 - -  - xy unitless 1
103 AEICALK4 2.137911e-1 - -  - xy unitless 1
104 AEICC2H6 5.214505e-3 - -  - xy unitless 1
105 AEICC3H8 7.808710e-4 - -  - xy unitless 1
106 AEICCH2O 1.230811e-1 - -  - xy unitless 1
107 AEICPRPE 1.780418e-1 - -  - xy unitless 1
108 AEICMACR 5.362609e-2 - -  - xy unitless 1
109 AEICRCHO 3.676944e-2 - -  - xy unitless 1
110 AEICNOCO 1.000000e-3 - -  - xy unitless 1
111 AEICSO2  1.176000e-3 - -  - xy unitless 1
112 AEICSO4  3.600000e-5 - -  - xy unitless 1
113 AEICBC   3.000000e-5 - -  - xy unitless 1
114 AEICHC   1.160000e-3 - -  - xy unitless 1
115 NO2toNO  6.521739e-1 - -  - xy unitless 1

#==============================================================================
# --- NEI 2005 scale factors ---
#==============================================================================
201 VISTAS_SEASON     $ROOT/NEI2005/v2014-09/scaling/Vistas_season.geos.1x1.nc       NOratio      2002/1-12/1/0 C  xy unitless 1
202 ARP_SEASON        $ROOT/NEI2005/v2014-09/scaling/ARP_season.geos.1x1.nc          NOxrat  1999-2007/1-12/1/0 C  xy unitless 1
210 NEI99_DOW_NOX     $ROOT/NEI2005/v2014-09/scaling/NEI99.dow.geos.1x1.nc           NOX          1999/1-12/WD/0 C xy unitless 1
211 NEI99_DOW_CO      $ROOT/NEI2005/v2014-09/scaling/NEI99.dow.geos.1x1.nc           CO           1999/1-12/WD/0 C xy unitless 1
212 NEI99_DOW_ALK4    $ROOT/NEI2005/v2014-09/scaling/NEI99.dow.geos.1x1.nc           ALK4         1999/1-12/WD/0 C xy unitless 1
213 NEI99_DOW_ACET    $ROOT/NEI2005/v2014-09/scaling/NEI99.dow.geos.1x1.nc           ACET         1999/1-12/WD/0 C xy unitless 1
214 NEI99_DOW_MEK     $ROOT/NEI2005/v2014-09/scaling/NEI99.dow.geos.1x1.nc           MEK          1999/1-12/WD/0 C xy unitless 1
215 NEI99_DOW_PRPE    $ROOT/NEI2005/v2014-09/scaling/NEI99.dow.geos.1x1.nc           PRPE         1999/1-12/WD/0 C xy unitless 1
216 NEI99_DOW_C3H8    $ROOT/NEI2005/v2014-09/scaling/NEI99.dow.geos.1x1.nc           C3H8         1999/1-12/WD/0 C xy unitless 1
217 NEI99_DOW_C2H6    $ROOT/NEI2005/v2014-09/scaling/NEI99.dow.geos.1x1.nc           C2H6         1999/1-12/WD/0 C xy unitless 1
218 NEI99_DOW_SO2     $ROOT/NEI2005/v2014-09/scaling/NEI99.dow.geos.1x1.nc           SO2          1999/1-12/WD/0 C xy unitless 1
219 NEI99_DOW_SO4     $ROOT/NEI2005/v2014-09/scaling/NEI99.dow.geos.1x1.nc           SO4          1999/1-12/WD/0 C xy unitless 1
220 NEI99_DOW_MSA     $ROOT/NEI2005/v2014-09/scaling/NEI99.dow.geos.1x1.nc           MSA          1999/1-12/WD/0 C xy unitless 1
221 NEI99_DOW_BCPI    $ROOT/NEI2005/v2014-09/scaling/NEI99.dow.geos.1x1.nc           BCPI         1999/1-12/WD/0 C xy unitless 1
222 NEI99_DOW_OCPI    $ROOT/NEI2005/v2014-09/scaling/NEI99.dow.geos.1x1.nc           OCPI         1999/1-12/WD/0 C xy unitless 1
230 NEI99_SEASON_CO   $ROOT/NEI2005/v2014-09/scaling/NEI99.season.geos.1x1.nc        CO           1999/1-12/1/0 C  xy unitless 1
231 NEI99_SEASON_ALK4 $ROOT/NEI2005/v2014-09/scaling/NEI99.season.geos.1x1.nc        ALK4         1999/1-12/1/0 C  xy unitless 1
232 NEI99_SEASON_ACET $ROOT/NEI2005/v2014-09/scaling/NEI99.season.geos.1x1.nc        ACET         1999/1-12/1/0 C  xy unitless 1
233 NEI99_SEASON_MEK  $ROOT/NEI2005/v2014-09/scaling/NEI99.season.geos.1x1.nc        MEK          1999/1-12/1/0 C  xy unitless 1
234 NEI99_SEASON_PRPE $ROOT/NEI2005/v2014-09/scaling/NEI99.season.geos.1x1.nc        PRPE         1999/1-12/1/0 C  xy unitless 1
235 NEI99_SEASON_C3H8 $ROOT/NEI2005/v2014-09/scaling/NEI99.season.geos.1x1.nc        C3H8         1999/1-12/1/0 C  xy unitless 1
236 NEI99_SEASON_C2H6 $ROOT/NEI2005/v2014-09/scaling/NEI99.season.geos.1x1.nc        C2H6         1999/1-12/1/0 C  xy unitless 1
237 NEI99_SEASON_SO2  $ROOT/NEI2005/v2014-09/scaling/NEI99.season.geos.1x1.nc        SO2          1999/1-12/1/0 C  xy unitless 1
238 NEI99_SEASON_SO4  $ROOT/NEI2005/v2014-09/scaling/NEI99.season.geos.1x1.nc        SO4          1999/1-12/1/0 C  xy unitless 1
239 NEI99_SEASON_MSA  $ROOT/NEI2005/v2014-09/scaling/NEI99.season.geos.1x1.nc        MSA          1999/1-12/1/0 C  xy unitless 1
240 NEI99_SEASON_BCPI $ROOT/NEI2005/v2014-09/scaling/NEI99.season.geos.1x1.nc        BCPI         1999/1-12/1/0 C  xy unitless 1
241 NEI99_SEASON_OCPI $ROOT/NEI2005/v2014-09/scaling/NEI99.season.geos.1x1.nc        OCPI         1999/1-12/1/0 C  xy unitless 1
242 NEI99_SEASON_NH3  0.216/0.418/0.622/0.815/0.982/0.974/1.0/0.9/0.96/0.6/0.28/0.236 -            -             - xy unitless 1

#==============================================================================
# --- NEI 2016 scale factors ---
#==============================================================================
251 NEI2016Beta_NO_YRSCALE  1.0               - 2016/1/1/0 C xy 1 1
252 NEI2016Beta_CO_YRSCALE  1.0               - 2016/1/1/0 C xy 1 1
253 NEI2016Beta_NH3_YRSCALE 1.0               - 2016/1/1/0 C xy 1 1
254 NEI2016Beta_VOC_YRSCALE 1.0               - 2016/1/1/0 C xy 1 1
255 NEI2016Beta_SO2_YRSCALE 1.0               - 2016/1/1/0 C xy 1 1
256 NEI2016Beta_BC_YRSCALE  1.0               - 2016/1/1/0 C xy 1 1
257 NEI2016Beta_OC_YRSCALE  1.0               - 2016/1/1/0 C xy 1 1
260 NEI2016Beta_PAR2ACET    0.06              - -          - xy 1 1
261 NEI2016Beta_PAR2C3H8    0.03              - -          - xy 1 1
262 NEI2016Beta_PAR2MEK     0.02              - -               - xy 1 1
263 NEI2016Beta_PAR2ALK4    0.87              - -               - xy 1 1
264 NEI2016Beta_OLE2PRPE    0.5               - -               - xy 1 1
265 NEI2016Beta_BC2BCPI     0.2               - -               - xy 1 1
266 NEI2016Beta_BC2BCPO     0.8               - -               - xy 1 1
267 NEI2016Beta_OC2OCPI     0.5               - -               - xy 1 1
268 NEI2016Beta_OC2OCPO     0.5               - -               - xy 1 1

### END SECTION SCALE FACTORS ###

###############################################################################
### BEGIN SECTION MASKS 
###############################################################################

# ScalID Name sourceFile sourceVar sourceTime C/R/E SrcDim SrcUnit Oper Lon1/Lat1/Lon2/Lat2

#==============================================================================
# Country/region masks
#==============================================================================
1000 EMEP_MASK   $ROOT/MASKS/v2014-07/EMEP_mask.geos.1x1.nc            MASK     2000/1/1/0 C xy unitless 1 -30/30/45/70
1001 MEXICO_MASK $ROOT/MASKS/v2014-07/BRAVO.MexicoMask.generic.1x1.nc  MASK     2000/1/1/0 C xy unitless 1 -118/17/-95/33
1002 CANADA_MASK $ROOT/MASKS/v2014-07/Canada_mask.geos.1x1.nc          MASK     2000/1/1/0 C xy unitless 1 -141/40/-52/85
1003 SEASIA_MASK $ROOT/MASKS/v2014-07/SE_Asia_mask.generic.1x1.nc      MASK     2000/1/1/0 C xy unitless 1  60/-12/153/55
1004 NA_MASK     $ROOT/MASKS/v2014-07/NA_mask.geos.1x1.nc              MASK     2000/1/1/0 C xy unitless 1 -165/10/-40/90
1005 USA_MASK    $ROOT/MASKS/v2014-07/usa.mask.nei2005.geos.1x1.nc     MASK     2000/1/1/0 C xy unitless 1 -165/10/-40/90
1006 ASIA_MASK   $ROOT/MASKS/v2014-07/MIX_Asia_mask.generic.025x025.nc MASK     2000/1/1/0 C xy unitless 1 46/-12/180/82
1007 NEI2016Beta_MASK  $ROOT/MASKS/v2014-07/USA_LANDMASK_NEI2016Beta_0.1x0.1.nc  LANDMASK 2000/1/1/0 C xy 1        1 -140/20/-50/60
###1007 NEI2016Beta_MASK  -140/20/-50/60                                        -        2000/1/1/0 C xy 1        1 -140/20/-50/60

### END SECTION MASKS ###

### END OF HEMCO INPUT FILE ###
#EOC
